<?xml version='1.0' encoding='UTF-8'?>
<!-- generated on 2022-09-13 22:11:33 by Eclipse SUMO netconvert Version 1.10.0
<configuration xmlns:xsi="http://www.w3.org/2001/XMLSchema-instance" xsi:noNamespaceSchemaLocation="http://sumo.dlr.de/xsd/netconvertConfiguration.xsd">

    <input>
        <type-files value="/scratch/2020_CARLA_challenge/sumo_integration/util/data/opendrive_netconvert.typ.xml"/>
        <opendrive-files value="/home/laura/DrivingSimulators/CARLA_0.9.10/CarlaUE4/Content/Carla/Maps/OpenDrive/Town06.xodr"/>
    </input>

    <output>
        <output-file value="maps/Town06.net.xml"/>
        <output.original-names value="true"/>
    </output>

    <processing>
        <geometry.remove value="true"/>
        <geometry.min-radius.fix value="true"/>
        <geometry.max-grade.fix value="false"/>
    </processing>

    <tls_building>
        <tls.discard-loaded value="true"/>
        <tls.left-green.time value="0"/>
    </tls_building>

    <junctions>
        <rectangular-lane-cut value="true"/>
    </junctions>

    <formats>
        <opendrive.import-all-lanes value="true"/>
        <opendrive.curve-resolution value="0.25"/>
    </formats>

    <report>
        <aggregate-warnings value="5"/>
    </report>

</configuration>
-->
<net xmlns:xsi="http://www.w3.org/2001/XMLSchema-instance" version="1.9" junctionCornerDetail="5" rectangularLaneCut="true" limitTurnSpeed="5.50" xsi:noNamespaceSchemaLocation="http://sumo.dlr.de/xsd/net_file.xsd">
  <location netOffset="357.36,403.33" convBoundary="0.00,0.00,1013.80,545.84" origBoundary="0.000000,0.000000,0.000000,0.000000" projParameter="+proj=tmerc +lat_0=0 +lon_0=0 +k=1 +x_0=0 +y_0=0 +datum=WGS84 +units=m +geoidgrids=egm96_15.gtx +vunits=m +no_defs "/>
  <type id="bidirectional" priority="1" speed="1.39" disallow="pedestrian tram rail_urban rail rail_electric rail_fast ship" width="3.65"/>
  <type id="biking" priority="-1" speed="5.56" allow="bicycle" width="1.50"/>
  <type id="border" priority="0" speed="1.39" disallow="all" discard="1" width="0.10"/>
  <type id="driving" priority="1" speed="13.89" disallow="pedestrian tram rail_urban rail rail_electric rail_fast ship" width="3.65"/>
  <type id="entry" priority="1" speed="22.22" disallow="pedestrian tram rail_urban rail rail_electric rail_fast ship" width="3.65"/>
  <type id="exit" priority="1" speed="22.22" disallow="pedestrian tram rail_urban rail rail_electric rail_fast ship" width="3.65"/>
  <type id="median" priority="0" speed="1.39" disallow="all" discard="1" width="0.10"/>
  <type id="mwyEntry" priority="1" speed="22.22" allow="private emergency authority army vip passenger hov taxi bus coach delivery truck trailer motorcycle evehicle custom1 custom2" width="3.65"/>
  <type id="mwyExit" priority="1" speed="22.22" allow="private emergency authority army vip passenger hov taxi bus coach delivery truck trailer motorcycle evehicle custom1 custom2" width="3.65"/>
  <type id="none" priority="0" speed="1.39" disallow="all" discard="1" width="1.00"/>
  <type id="offRamp" priority="1" speed="22.22" allow="private emergency authority army vip passenger hov taxi bus coach delivery truck trailer motorcycle evehicle custom1 custom2" width="3.65"/>
  <type id="onRamp" priority="1" speed="22.22" allow="private emergency authority army vip passenger hov taxi bus coach delivery truck trailer motorcycle evehicle custom1 custom2" width="3.65"/>
  <type id="parking" priority="1" speed="1.39" disallow="pedestrian tram rail_urban rail rail_electric rail_fast ship" width="2.50"/>
  <type id="rail" priority="3" speed="33.33" allow="rail_urban rail rail_electric rail_fast" width="3.65"/>
  <type id="restricted" priority="0" speed="13.89" disallow="all" width="3.65"/>
  <type id="roadWorks" priority="0" speed="1.39" allow="authority" width="3.65"/>
  <type id="shoulder" priority="0" speed="1.39" disallow="all" discard="1" width="1.00"/>
  <type id="sidewalk" priority="-2" speed="2.78" allow="pedestrian" width="2.50"/>
  <type id="special1" priority="1" speed="22.22" allow="custom1" discard="1" width="3.65"/>
  <type id="special2" priority="1" speed="22.22" allow="custom2" discard="1" width="3.65"/>
  <type id="special3" priority="1" speed="22.22" allow="custom1 custom2" discard="1" width="3.65"/>
  <type id="stop" priority="1" speed="13.89" disallow="pedestrian tram rail_urban rail rail_electric rail_fast ship" width="3.65"/>
  <type id="tram" priority="2" speed="13.89" allow="tram" width="3.65"/>
  <edge id=":1034_0" function="internal">
    <lane id=":1034_0_0" index="0" disallow="all" speed="1.39" length="44.66" width="0.63" shape="809.90,248.98 854.56,248.80">
      <param key="origId" value="1037_-9"/>
    </lane>
    <lane id=":1034_0_1" index="1" disallow="all" speed="1.39" length="44.66" width="0.50" shape="809.91,249.55 854.57,249.36">
      <param key="origId" value="1037_-8"/>
    </lane>
    <lane id=":1034_0_2" index="2" disallow="pedestrian tram rail_urban rail rail_electric rail_fast ship" speed="13.89" length="44.66" width="3.50" shape="809.91,251.55 854.57,251.36">
      <param key="origId" value="1037_-7"/>
    </lane>
    <lane id=":1034_0_3" index="3" disallow="pedestrian tram rail_urban rail rail_electric rail_fast ship" speed="13.89" length="44.66" width="3.50" shape="809.93,255.05 854.59,254.86">
      <param key="origId" value="1037_-6"/>
    </lane>
    <lane id=":1034_0_4" index="4" disallow="pedestrian tram rail_urban rail rail_electric rail_fast ship" speed="13.89" length="44.66" width="3.50" shape="809.94,258.55 854.60,258.36">
      <param key="origId" value="1037_-5"/>
    </lane>
    <lane id=":1034_0_5" index="5" disallow="pedestrian tram rail_urban rail rail_electric rail_fast ship" speed="13.89" length="44.66" width="3.50" shape="809.96,262.05 854.62,261.86">
      <param key="origId" value="1037_-4"/>
    </lane>
    <lane id=":1034_0_6" index="6" disallow="pedestrian tram rail_urban rail rail_electric rail_fast ship" speed="13.89" length="44.66" width="3.50" shape="809.97,265.55 854.63,265.36">
      <param key="origId" value="1037_-3"/>
    </lane>
  </edge>
  <edge id=":1034_7" function="internal">
    <lane id=":1034_7_0" index="0" disallow="pedestrian tram rail_urban rail rail_electric rail_fast ship" speed="13.89" length="43.47" width="3.50" shape="809.97,265.55 822.79,265.62 831.82,266.96 839.74,271.04 849.24,279.34">
      <param key="origId" value="1043_-3"/>
    </lane>
  </edge>
  <edge id=":1034_8" function="internal">
    <lane id=":1034_8_0" index="0" disallow="all" speed="1.39" length="44.66" width="0.50" shape="809.98,267.55 854.64,267.36">
      <param key="origId" value="1037_-2"/>
    </lane>
  </edge>
  <edge id=":1034_9" function="internal">
    <lane id=":1034_9_0" index="0" disallow="all" speed="1.39" length="41.89" width="0.50" shape="809.98,267.55 822.34,267.61 831.05,268.88 838.69,272.79 847.85,280.77">
      <param key="origId" value="1043_-2"/>
    </lane>
    <lane id=":1034_9_1" index="1" disallow="all" speed="1.39" length="41.44" width="0.63" shape="809.98,268.11 822.21,268.17 830.83,269.42 838.39,273.28 847.45,281.18">
      <param key="origId" value="1043_-1"/>
    </lane>
  </edge>
  <edge id=":1050_0" function="internal">
    <lane id=":1050_0_0" index="0" disallow="all" speed="1.39" length="30.04" width="0.63" shape="882.26,336.48 887.06,341.76 893.04,345.53 900.18,347.80 908.50,348.55">
      <param key="origId" value="1124_5"/>
    </lane>
    <lane id=":1050_0_1" index="1" disallow="all" speed="1.39" length="30.59" width="0.50" shape="881.80,336.81 886.69,342.19 892.77,346.04 900.04,348.35 908.50,349.12">
      <param key="origId" value="1124_4"/>
    </lane>
    <lane id=":1050_0_2" index="2" disallow="pedestrian tram rail_urban rail rail_electric rail_fast ship" speed="13.89" length="32.51" width="3.50" shape="880.16,337.95 885.38,343.71 891.84,347.83 899.55,350.30 908.49,351.12">
      <param key="origId" value="1124_3"/>
    </lane>
  </edge>
  <edge id=":1050_3" function="internal">
    <lane id=":1050_3_0" index="0" disallow="all" speed="1.39" length="70.79" width="0.50" shape="837.71,349.09 908.50,349.12">
      <param key="origId" value="1083_-8"/>
    </lane>
    <lane id=":1050_3_1" index="1" disallow="pedestrian tram rail_urban rail rail_electric rail_fast ship" speed="13.89" length="70.79" width="3.50" shape="837.70,351.09 908.49,351.12">
      <param key="origId" value="1083_-7"/>
    </lane>
    <lane id=":1050_3_2" index="2" disallow="pedestrian tram rail_urban rail rail_electric rail_fast ship" speed="13.89" length="70.79" width="3.50" shape="837.70,354.59 908.49,354.62">
      <param key="origId" value="1083_-6"/>
    </lane>
    <lane id=":1050_3_3" index="3" disallow="pedestrian tram rail_urban rail rail_electric rail_fast ship" speed="13.89" length="70.79" width="3.50" shape="837.70,358.09 908.49,358.12">
      <param key="origId" value="1083_-5"/>
    </lane>
    <lane id=":1050_3_4" index="4" disallow="pedestrian tram rail_urban rail rail_electric rail_fast ship" speed="13.89" length="70.79" width="3.50" shape="837.70,361.59 908.49,361.62">
      <param key="origId" value="1083_-4"/>
    </lane>
    <lane id=":1050_3_5" index="5" disallow="pedestrian tram rail_urban rail rail_electric rail_fast ship" speed="13.89" length="70.79" width="3.50" shape="837.70,365.09 908.49,365.12">
      <param key="origId" value="1083_-3"/>
    </lane>
  </edge>
  <edge id=":1050_9" function="internal">
    <lane id=":1050_9_0" index="0" disallow="pedestrian tram rail_urban rail rail_electric rail_fast ship" speed="13.89" length="37.74" width="3.50" shape="837.70,365.09 847.86,365.96 856.89,368.57 864.81,372.91 871.59,378.99">
      <param key="origId" value="1051_-1"/>
    </lane>
  </edge>
  <edge id=":1050_10" function="internal">
    <lane id=":1050_10_0" index="0" disallow="all" speed="1.39" length="70.79" width="0.50" shape="837.70,367.09 908.49,367.12">
      <param key="origId" value="1083_-2"/>
    </lane>
  </edge>
  <edge id=":1050_11" function="internal">
    <lane id=":1050_11_0" index="0" disallow="all" speed="1.39" length="35.58" width="0.63" shape="837.70,367.65 847.31,368.47 855.84,370.92 863.30,375.00 869.68,380.70">
      <param key="origId" value="1052_-1"/>
    </lane>
  </edge>
  <edge id=":1128_0" function="internal">
    <lane id=":1128_0_0" index="0" disallow="all" speed="1.39" length="42.10" width="0.63" shape="274.61,270.45 232.51,270.55">
      <param key="origId" value="1129_7"/>
    </lane>
    <lane id=":1128_0_1" index="1" disallow="all" speed="1.39" length="42.10" width="0.50" shape="274.61,269.88 232.51,269.98">
      <param key="origId" value="1129_6"/>
    </lane>
    <lane id=":1128_0_2" index="2" disallow="pedestrian tram rail_urban rail rail_electric rail_fast ship" speed="13.89" length="42.10" width="3.50" shape="274.61,267.88 232.51,267.98">
      <param key="origId" value="1129_5"/>
    </lane>
    <lane id=":1128_0_3" index="3" disallow="pedestrian tram rail_urban rail rail_electric rail_fast ship" speed="13.89" length="42.10" width="3.50" shape="274.60,264.38 232.50,264.48">
      <param key="origId" value="1129_4"/>
    </lane>
    <lane id=":1128_0_4" index="4" disallow="pedestrian tram rail_urban rail rail_electric rail_fast ship" speed="13.89" length="42.10" width="3.50" shape="274.59,260.88 232.49,260.98">
      <param key="origId" value="1129_3"/>
    </lane>
    <lane id=":1128_0_5" index="5" disallow="pedestrian tram rail_urban rail rail_electric rail_fast ship" speed="13.89" length="42.10" width="3.50" shape="274.58,257.38 232.48,257.48">
      <param key="origId" value="1129_2"/>
    </lane>
  </edge>
  <edge id=":1128_6" function="internal">
    <lane id=":1128_6_0" index="0" disallow="pedestrian tram rail_urban rail rail_electric rail_fast ship" speed="13.89" length="39.16" width="3.50" shape="269.77,243.13 260.36,250.04 252.79,253.18 244.39,254.01 232.47,253.98">
      <param key="origId" value="1139_3"/>
    </lane>
    <lane id=":1128_6_1" index="1" disallow="all" speed="1.39" length="39.16" width="0.50" shape="268.49,241.59 259.41,248.25 252.09,251.25 243.98,252.02 232.47,251.98">
      <param key="origId" value="1139_2"/>
    </lane>
    <lane id=":1128_6_2" index="2" disallow="all" speed="1.39" length="39.16" width="0.63" shape="268.13,241.15 259.14,247.74 251.90,250.70 243.86,251.46 232.47,251.42">
      <param key="origId" value="1139_1"/>
    </lane>
  </edge>
  <edge id=":1146_0" function="internal">
    <lane id=":1146_0_0" index="0" disallow="all" speed="1.39" length="69.19" width="0.63" shape="544.34,236.13 558.94,243.77 572.74,247.89 588.86,249.55 610.41,249.80">
      <param key="origId" value="1159_5"/>
    </lane>
    <lane id=":1146_0_1" index="1" disallow="all" speed="1.39" length="69.19" width="0.50" shape="544.05,236.62 558.67,244.26 572.53,248.41 588.75,250.10 610.41,250.36">
      <param key="origId" value="1159_4"/>
    </lane>
    <lane id=":1146_0_2" index="2" disallow="pedestrian tram rail_urban rail rail_electric rail_fast ship" speed="13.89" length="69.19" width="3.50" shape="543.01,238.33 557.71,246.02 571.82,250.27 588.37,252.06 610.42,252.36">
      <param key="origId" value="1159_3"/>
    </lane>
  </edge>
  <edge id=":1146_3" function="internal">
    <lane id=":1146_3_0" index="0" disallow="all" speed="1.39" length="71.30" width="0.50" shape="539.11,250.66 610.41,250.36">
      <param key="origId" value="1149_-8"/>
    </lane>
    <lane id=":1146_3_1" index="1" disallow="pedestrian tram rail_urban rail rail_electric rail_fast ship" speed="13.89" length="71.30" width="3.50" shape="539.12,252.66 610.42,252.36">
      <param key="origId" value="1149_-7"/>
    </lane>
    <lane id=":1146_3_2" index="2" disallow="pedestrian tram rail_urban rail rail_electric rail_fast ship" speed="13.89" length="71.30" width="3.50" shape="539.13,256.16 610.43,255.86">
      <param key="origId" value="1149_-6"/>
    </lane>
    <lane id=":1146_3_3" index="3" disallow="pedestrian tram rail_urban rail rail_electric rail_fast ship" speed="13.89" length="71.30" width="3.50" shape="539.15,259.66 610.44,259.36">
      <param key="origId" value="1149_-5"/>
    </lane>
    <lane id=":1146_3_4" index="4" disallow="pedestrian tram rail_urban rail rail_electric rail_fast ship" speed="13.89" length="71.30" width="3.50" shape="539.16,263.16 610.46,262.86">
      <param key="origId" value="1149_-4"/>
    </lane>
    <lane id=":1146_3_5" index="5" disallow="pedestrian tram rail_urban rail rail_electric rail_fast ship" speed="13.89" length="71.30" width="3.50" shape="539.17,266.66 610.47,266.36">
      <param key="origId" value="1149_-3"/>
    </lane>
    <lane id=":1146_3_6" index="6" disallow="all" speed="1.39" length="71.30" width="0.50" shape="539.18,268.66 610.48,268.36">
      <param key="origId" value="1149_-2"/>
    </lane>
    <lane id=":1146_3_7" index="7" disallow="all" speed="1.39" length="71.30" width="0.63" shape="539.18,269.22 610.48,268.93">
      <param key="origId" value="1149_-1"/>
    </lane>
  </edge>
  <edge id=":1162_0" function="internal">
    <lane id=":1162_0_0" index="0" disallow="all" speed="1.39" length="29.23" width="0.63" shape="511.77,429.40 482.54,429.29">
      <param key="origId" value="1164_-8"/>
    </lane>
    <lane id=":1162_0_1" index="1" disallow="all" speed="1.39" length="29.23" width="0.50" shape="511.77,428.83 482.54,428.72">
      <param key="origId" value="1164_-7"/>
    </lane>
    <lane id=":1162_0_2" index="2" disallow="pedestrian tram rail_urban rail rail_electric rail_fast ship" speed="13.89" length="29.23" width="3.50" shape="511.78,426.83 482.55,426.72">
      <param key="origId" value="1164_-6"/>
      <param key="signalID" value="1238"/>
    </lane>
    <lane id=":1162_0_3" index="3" disallow="pedestrian tram rail_urban rail rail_electric rail_fast ship" speed="13.89" length="29.23" width="3.50" shape="511.79,423.33 482.56,423.22">
      <param key="origId" value="1164_-5"/>
      <param key="signalID" value="1238"/>
    </lane>
    <lane id=":1162_0_4" index="4" disallow="pedestrian tram rail_urban rail rail_electric rail_fast ship" speed="13.89" length="29.23" width="3.50" shape="511.80,419.83 482.57,419.72">
      <param key="origId" value="1164_-4"/>
      <param key="signalID" value="1238"/>
    </lane>
    <lane id=":1162_0_5" index="5" disallow="pedestrian tram rail_urban rail rail_electric rail_fast ship" speed="13.89" length="29.23" width="3.50" shape="511.82,416.33 482.59,416.22">
      <param key="origId" value="1164_-3"/>
      <param key="signalID" value="1238"/>
    </lane>
    <lane id=":1162_0_6" index="6" disallow="all" speed="1.39" length="29.23" width="0.50" shape="511.82,414.33 482.59,414.22">
      <param key="origId" value="1164_-2"/>
    </lane>
  </edge>
  <edge id=":1162_7" function="internal">
    <lane id=":1162_7_0" index="0" disallow="pedestrian tram rail_urban rail rail_electric rail_fast ship" speed="13.37" length="35.89" width="3.50" shape="502.07,399.95 499.05,411.68 494.79,420.06 489.29,425.07 482.55,426.72">
      <param key="origId" value="1175_1"/>
      <param key="signalID" value="1239"/>
    </lane>
    <lane id=":1162_7_1" index="1" disallow="pedestrian tram rail_urban rail rail_electric rail_fast ship" speed="12.86" length="33.16" width="3.50" shape="502.07,399.95 499.29,410.15 495.11,417.43 489.53,421.79 482.56,423.22">
      <param key="origId" value="1176_1"/>
      <param key="signalID" value="1239"/>
    </lane>
    <lane id=":1162_7_2" index="2" disallow="pedestrian tram rail_urban rail rail_electric rail_fast ship" speed="12.35" length="30.52" width="3.50" shape="502.07,399.95 499.52,408.62 495.42,414.81 489.77,418.51 482.57,419.72">
      <param key="origId" value="1180_4"/>
      <param key="signalID" value="1239"/>
    </lane>
    <lane id=":1162_7_3" index="3" disallow="pedestrian tram rail_urban rail rail_electric rail_fast ship" speed="11.34" length="25.57" width="3.50" shape="498.63,399.33 496.49,406.74 493.10,412.02 488.47,415.18 482.59,416.22">
      <param key="origId" value="1180_3"/>
      <param key="signalID" value="1239"/>
    </lane>
    <lane id=":1162_7_4" index="4" disallow="all" speed="1.39" length="22.74" width="0.50" shape="496.66,398.98 494.75,405.66 491.77,410.43 487.72,413.29 482.59,414.22">
      <param key="origId" value="1180_2"/>
    </lane>
    <lane id=":1162_7_5" index="5" disallow="all" speed="1.39" length="21.94" width="0.63" shape="496.10,398.88 494.26,405.36 491.40,409.98 487.51,412.75 482.60,413.66">
      <param key="origId" value="1180_1"/>
      <param key="signalID" value="1239"/>
    </lane>
  </edge>
  <edge id=":1187_0" function="internal">
    <lane id=":1187_0_0" index="0" disallow="all" speed="1.39" length="55.65" width="0.63" shape="430.22,149.21 485.87,149.19">
      <param key="origId" value="1190_-9"/>
    </lane>
    <lane id=":1187_0_1" index="1" disallow="all" speed="1.39" length="55.65" width="0.50" shape="430.22,149.78 485.87,149.76">
      <param key="origId" value="1190_-8"/>
    </lane>
    <lane id=":1187_0_2" index="2" disallow="pedestrian tram rail_urban rail rail_electric rail_fast ship" speed="13.89" length="55.65" width="3.50" shape="430.22,151.78 485.87,151.76">
      <param key="origId" value="1190_-7"/>
    </lane>
    <lane id=":1187_0_3" index="3" disallow="pedestrian tram rail_urban rail rail_electric rail_fast ship" speed="13.89" length="55.65" width="3.50" shape="430.23,155.28 485.88,155.26">
      <param key="origId" value="1190_-6"/>
    </lane>
    <lane id=":1187_0_4" index="4" disallow="pedestrian tram rail_urban rail rail_electric rail_fast ship" speed="13.89" length="55.65" width="3.50" shape="430.23,158.78 485.88,158.76">
      <param key="origId" value="1190_-5"/>
    </lane>
    <lane id=":1187_0_5" index="5" disallow="pedestrian tram rail_urban rail rail_electric rail_fast ship" speed="13.89" length="55.65" width="3.50" shape="430.23,162.28 485.88,162.26">
      <param key="origId" value="1190_-4"/>
    </lane>
    <lane id=":1187_0_6" index="6" disallow="pedestrian tram rail_urban rail rail_electric rail_fast ship" speed="13.89" length="55.65" width="3.50" shape="430.23,165.78 485.88,165.76">
      <param key="origId" value="1190_-3"/>
    </lane>
  </edge>
  <edge id=":1187_7" function="internal">
    <lane id=":1187_7_0" index="0" disallow="pedestrian tram rail_urban rail rail_electric rail_fast ship" speed="13.89" length="54.55" width="3.50" shape="430.23,165.78 446.56,165.93 458.15,167.37 468.57,171.55 481.38,179.92">
      <param key="origId" value="1196_-3"/>
    </lane>
  </edge>
  <edge id=":1187_8" function="internal">
    <lane id=":1187_8_0" index="0" disallow="all" speed="1.39" length="55.65" width="0.50" shape="430.23,167.78 485.88,167.76">
      <param key="origId" value="1190_-2"/>
    </lane>
  </edge>
  <edge id=":1187_9" function="internal">
    <lane id=":1187_9_0" index="0" disallow="all" speed="1.39" length="53.32" width="0.50" shape="430.23,167.78 446.12,167.87 457.34,169.18 467.49,173.23 480.21,181.55">
      <param key="origId" value="1196_-2"/>
    </lane>
    <lane id=":1187_9_1" index="1" disallow="all" speed="1.39" length="52.97" width="0.63" shape="430.23,168.35 446.00,168.42 457.11,169.69 467.19,173.70 479.88,182.01">
      <param key="origId" value="1196_-1"/>
    </lane>
  </edge>
  <edge id=":1203_0" function="internal">
    <lane id=":1203_0_0" index="0" disallow="all" speed="1.39" length="35.78" width="0.63" shape="884.96,430.28 849.18,430.36">
      <param key="origId" value="1206_-9"/>
    </lane>
    <lane id=":1203_0_1" index="1" disallow="all" speed="1.39" length="35.78" width="0.50" shape="884.96,429.72 849.18,429.79">
      <param key="origId" value="1206_-8"/>
    </lane>
    <lane id=":1203_0_2" index="2" disallow="pedestrian tram rail_urban rail rail_electric rail_fast ship" speed="13.89" length="35.78" width="3.50" shape="884.96,427.72 849.18,427.79">
      <param key="origId" value="1206_-7"/>
    </lane>
    <lane id=":1203_0_3" index="3" disallow="pedestrian tram rail_urban rail rail_electric rail_fast ship" speed="13.89" length="35.78" width="3.50" shape="884.95,424.22 849.17,424.29">
      <param key="origId" value="1206_-6"/>
    </lane>
    <lane id=":1203_0_4" index="4" disallow="pedestrian tram rail_urban rail rail_electric rail_fast ship" speed="13.89" length="35.78" width="3.50" shape="884.94,420.72 849.16,420.79">
      <param key="origId" value="1206_-5"/>
    </lane>
    <lane id=":1203_0_5" index="5" disallow="pedestrian tram rail_urban rail rail_electric rail_fast ship" speed="13.89" length="35.78" width="3.50" shape="884.93,417.22 849.15,417.29">
      <param key="origId" value="1206_-4"/>
    </lane>
    <lane id=":1203_0_6" index="6" disallow="pedestrian tram rail_urban rail rail_electric rail_fast ship" speed="13.89" length="35.78" width="3.50" shape="884.93,413.72 849.15,413.79">
      <param key="origId" value="1206_-3"/>
    </lane>
    <lane id=":1203_0_7" index="7" disallow="all" speed="1.39" length="35.78" width="0.50" shape="884.92,411.72 849.14,411.79">
      <param key="origId" value="1206_-2"/>
    </lane>
  </edge>
  <edge id=":1203_8" function="internal">
    <lane id=":1203_8_0" index="0" disallow="pedestrian tram rail_urban rail rail_electric rail_fast ship" speed="13.89" length="32.72" width="3.50" shape="876.24,402.79 872.41,409.12 866.62,413.65 858.87,416.37 849.15,417.29">
      <param key="origId" value="1216_1"/>
    </lane>
    <lane id=":1203_8_1" index="1" disallow="pedestrian tram rail_urban rail rail_electric rail_fast ship" speed="13.68" length="30.87" width="3.50" shape="876.24,402.79 872.93,407.59 867.31,411.02 859.38,413.09 849.15,413.79">
      <param key="origId" value="1218_3"/>
    </lane>
    <lane id=":1203_8_2" index="2" disallow="all" speed="1.39" length="28.50" width="0.50" shape="874.38,402.06 871.37,406.30 866.16,409.34 858.75,411.17 849.14,411.79">
      <param key="origId" value="1218_2"/>
    </lane>
    <lane id=":1203_8_3" index="3" disallow="all" speed="1.39" length="27.82" width="0.63" shape="873.85,401.85 870.93,405.94 865.84,408.86 858.57,410.62 849.14,411.23">
      <param key="origId" value="1218_1"/>
    </lane>
  </edge>
  <edge id=":15.14_0" function="internal">
    <lane id=":15.14_0_0" index="0" disallow="all" speed="1.39" length="8.64" width="0.63" shape="379.62,348.38 382.32,348.11 384.13,347.54 385.95,347.01 388.64,346.90"/>
    <lane id=":15.14_0_1" index="1" disallow="all" speed="1.39" length="8.64" width="0.50" shape="379.62,348.95 382.31,348.68 384.12,348.10 385.92,347.58 388.60,347.47"/>
    <lane id=":15.14_0_2" index="2" disallow="pedestrian tram rail_urban rail rail_electric rail_fast ship" speed="13.89" length="8.64" width="3.50" shape="379.62,350.95 382.27,350.68 384.05,350.10 385.83,349.58 388.48,349.46"/>
    <lane id=":15.14_0_3" index="3" disallow="pedestrian tram rail_urban rail rail_electric rail_fast ship" speed="13.89" length="8.64" width="3.50" shape="379.62,354.45 382.20,354.18 383.94,353.60 385.67,353.07 388.25,352.96"/>
    <lane id=":15.14_0_4" index="4" disallow="pedestrian tram rail_urban rail rail_electric rail_fast ship" speed="13.89" length="8.64" width="3.50" shape="379.61,357.95 382.13,357.68 383.83,357.10 385.52,356.56 388.03,356.45"/>
    <lane id=":15.14_0_5" index="5" disallow="pedestrian tram rail_urban rail rail_electric rail_fast ship" speed="13.89" length="8.64" width="3.50" shape="379.61,361.45 382.06,361.18 383.71,360.59 385.36,360.06 387.81,359.94"/>
    <lane id=":15.14_0_6" index="6" disallow="all" speed="1.39" length="8.64" width="0.50" shape="379.61,363.45 387.57,363.59"/>
    <lane id=":15.14_0_7" index="7" disallow="all" speed="1.39" length="8.64" width="0.63" shape="379.61,364.02 387.54,364.16"/>
  </edge>
  <edge id=":15.16.01_0" function="internal">
    <lane id=":15.16.01_0_0" index="0" disallow="all" speed="1.39" length="3.64" width="0.63" shape="400.95,348.39 404.38,346.40"/>
    <lane id=":15.16.01_0_1" index="1" disallow="all" speed="1.39" length="3.64" width="0.50" shape="400.86,348.95 404.28,346.96"/>
    <lane id=":15.16.01_0_2" index="2" disallow="pedestrian tram rail_urban rail rail_electric rail_fast ship" speed="13.89" length="3.64" width="3.50" shape="400.54,350.92 403.95,348.93"/>
    <lane id=":15.16.01_0_3" index="3" disallow="pedestrian tram rail_urban rail rail_electric rail_fast ship" speed="13.89" length="3.64" width="3.50" shape="399.98,354.38 403.36,352.38"/>
    <lane id=":15.16.01_0_4" index="4" disallow="pedestrian tram rail_urban rail rail_electric rail_fast ship" speed="13.89" length="3.64" width="3.50" shape="399.42,357.83 402.78,355.83"/>
    <lane id=":15.16.01_0_5" index="5" disallow="pedestrian tram rail_urban rail rail_electric rail_fast ship" speed="13.89" length="3.64" width="3.50" shape="398.86,361.29 402.20,359.28"/>
    <lane id=":15.16.01_0_6" index="6" allow="emergency authority" speed="13.89" length="3.64" width="4.18" shape="398.45,363.83 399.38,363.78 400.01,363.45 400.63,363.11 401.56,363.07"/>
    <lane id=":15.16.01_0_7" index="7" disallow="all" speed="1.39" length="3.64" width="0.50" shape="398.28,364.90 401.17,365.38"/>
    <lane id=":15.16.01_0_8" index="8" disallow="all" speed="1.39" length="3.64" width="0.63" shape="398.19,365.46 401.08,365.94"/>
  </edge>
  <edge id=":22.34.82_0" function="internal">
    <lane id=":22.34.82_0_0" index="0" disallow="all" speed="1.39" length="3.38" width="0.63" shape="309.69,270.46 308.72,270.65 308.12,271.18 307.53,271.72 306.55,271.90"/>
    <lane id=":22.34.82_0_1" index="1" disallow="all" speed="1.39" length="3.38" width="0.50" shape="309.74,269.90 308.77,270.08 308.17,270.62 307.58,271.15 306.60,271.34"/>
    <lane id=":22.34.82_0_2" index="2" disallow="pedestrian tram rail_urban rail rail_electric rail_fast ship" speed="13.89" length="3.38" width="3.50" shape="309.91,267.91 308.94,268.09 308.34,268.62 307.75,269.16 306.78,269.34"/>
    <lane id=":22.34.82_0_3" index="3" disallow="pedestrian tram rail_urban rail rail_electric rail_fast ship" speed="13.89" length="3.38" width="3.50" shape="310.21,264.42 309.24,264.60 308.65,265.14 308.05,265.67 307.08,265.86"/>
    <lane id=":22.34.82_0_4" index="4" disallow="pedestrian tram rail_urban rail rail_electric rail_fast ship" speed="13.89" length="3.38" width="3.50" shape="310.52,260.93 309.54,261.12 308.95,261.65 308.35,262.19 307.38,262.37"/>
    <lane id=":22.34.82_0_5" index="5" allow="emergency authority" speed="13.89" length="3.38" width="3.50" shape="310.74,258.29 309.83,258.35 309.21,258.59 308.60,258.83 307.68,258.88"/>
    <lane id=":22.34.82_0_6" index="6" disallow="all" speed="1.39" length="3.38" width="0.50" shape="310.84,257.15 307.85,256.89"/>
    <lane id=":22.34.82_0_7" index="7" disallow="all" speed="1.39" length="3.38" width="0.63" shape="310.89,256.58 307.90,256.32"/>
  </edge>
  <edge id=":23.22_0" function="internal">
    <lane id=":23.22_0_0" index="0" disallow="all" speed="1.39" length="7.81" width="0.63" shape="332.94,270.31 330.48,270.60 328.81,271.18 327.16,271.69 324.70,271.76"/>
    <lane id=":23.22_0_1" index="1" disallow="all" speed="1.39" length="7.81" width="0.50" shape="332.94,269.75 330.49,270.03 328.84,270.61 327.19,271.13 324.75,271.20"/>
    <lane id=":23.22_0_2" index="2" disallow="pedestrian tram rail_urban rail rail_electric rail_fast ship" speed="13.89" length="7.81" width="3.50" shape="332.94,267.75 330.54,268.03 328.92,268.61 327.31,269.13 324.92,269.21"/>
    <lane id=":23.22_0_3" index="3" disallow="pedestrian tram rail_urban rail rail_electric rail_fast ship" speed="13.89" length="7.81" width="3.50" shape="332.93,264.25 330.62,264.53 329.07,265.11 327.52,265.63 325.22,265.72"/>
    <lane id=":23.22_0_4" index="4" disallow="pedestrian tram rail_urban rail rail_electric rail_fast ship" speed="13.89" length="7.81" width="3.50" shape="332.92,260.75 330.70,261.03 329.22,261.62 327.73,262.14 325.52,262.23"/>