<?xml version='1.0' encoding='UTF-8'?>
<!-- generated on 2022-09-02 13:53:06 by Eclipse SUMO netconvert Version 1.10.0
<configuration xmlns:xsi="http://www.w3.org/2001/XMLSchema-instance" xsi:noNamespaceSchemaLocation="http://sumo.dlr.de/xsd/netconvertConfiguration.xsd">

    <input>
        <type-files value="/scratch/transfuser/sumo_integration/util/data/opendrive_netconvert.typ.xml"/>
        <opendrive-files value="/home/laura/DrivingSimulators/CARLA_0.9.10/CarlaUE4/Content/Carla/Maps/OpenDrive/Town10HD.xodr"/>
    </input>

    <output>
        <output-file value="maps/Town10HD.net.xml"/>
        <output.original-names value="true"/>
    </output>

    <processing>
        <geometry.remove value="true"/>
        <geometry.min-radius.fix value="true"/>
        <geometry.max-grade.fix value="false"/>
    </processing>

    <tls_building>
        <tls.discard-loaded value="true"/>
        <tls.left-green.time value="0"/>
    </tls_building>

    <junctions>
        <rectangular-lane-cut value="true"/>
    </junctions>

    <formats>
        <opendrive.import-all-lanes value="true"/>
        <opendrive.curve-resolution value="0.25"/>
    </formats>

    <report>
        <aggregate-warnings value="5"/>
    </report>

</configuration>
-->
<net xmlns:xsi="http://www.w3.org/2001/XMLSchema-instance" version="1.9" junctionCornerDetail="5" rectangularLaneCut="true" limitTurnSpeed="5.50" xsi:noNamespaceSchemaLocation="http://sumo.dlr.de/xsd/net_file.xsd">
  <location netOffset="109.35,135.96" convBoundary="0.00,0.00,214.08,199.44" origBoundary="0.000000,0.000000,0.000000,0.000000" projParameter="+proj=tmerc +lat_0=0 +lon_0=0 +k=1 +x_0=0 +y_0=0 +datum=WGS84 +units=m +geoidgrids=egm96_15.gtx +vunits=m +no_defs "/>
  <type id="bidirectional" priority="1" speed="1.39" disallow="pedestrian tram rail_urban rail rail_electric rail_fast ship" width="3.65"/>
  <type id="biking" priority="-1" speed="5.56" allow="bicycle" width="1.50"/>
  <type id="border" priority="0" speed="1.39" disallow="all" discard="1" width="0.10"/>
  <type id="driving" priority="1" speed="13.89" disallow="pedestrian tram rail_urban rail rail_electric rail_fast ship" width="3.65"/>
  <type id="entry" priority="1" speed="22.22" disallow="pedestrian tram rail_urban rail rail_electric rail_fast ship" width="3.65"/>
  <type id="exit" priority="1" speed="22.22" disallow="pedestrian tram rail_urban rail rail_electric rail_fast ship" width="3.65"/>
  <type id="median" priority="0" speed="1.39" disallow="all" discard="1" width="0.10"/>
  <type id="mwyEntry" priority="1" speed="22.22" allow="private emergency authority army vip passenger hov taxi bus coach delivery truck trailer motorcycle evehicle custom1 custom2" width="3.65"/>
  <type id="mwyExit" priority="1" speed="22.22" allow="private emergency authority army vip passenger hov taxi bus coach delivery truck trailer motorcycle evehicle custom1 custom2" width="3.65"/>
  <type id="none" priority="0" speed="1.39" disallow="all" discard="1" width="1.00"/>
  <type id="offRamp" priority="1" speed="22.22" allow="private emergency authority army vip passenger hov taxi bus coach delivery truck trailer motorcycle evehicle custom1 custom2" width="3.65"/>
  <type id="onRamp" priority="1" speed="22.22" allow="private emergency authority army vip passenger hov taxi bus coach delivery truck trailer motorcycle evehicle custom1 custom2" width="3.65"/>
  <type id="parking" priority="1" speed="1.39" disallow="pedestrian tram rail_urban rail rail_electric rail_fast ship" width="2.50"/>
  <type id="rail" priority="3" speed="33.33" allow="rail_urban rail rail_electric rail_fast" width="3.65"/>
  <type id="restricted" priority="0" speed="13.89" disallow="all" width="3.65"/>
  <type id="roadWorks" priority="0" speed="1.39" allow="authority" width="3.65"/>
  <type id="shoulder" priority="0" speed="1.39" disallow="all" discard="1" width="1.00"/>
  <type id="sidewalk" priority="-2" speed="2.78" allow="pedestrian" width="2.50"/>
  <type id="special1" priority="1" speed="22.22" allow="custom1" discard="1" width="3.65"/>
  <type id="special2" priority="1" speed="22.22" allow="custom2" discard="1" width="3.65"/>
  <type id="special3" priority="1" speed="22.22" allow="custom1 custom2" discard="1" width="3.65"/>
  <type id="stop" priority="1" speed="13.89" disallow="pedestrian tram rail_urban rail rail_electric rail_fast ship" width="3.65"/>
  <type id="tram" priority="2" speed="13.89" allow="tram" width="3.65"/>
  <edge id=":134_0" function="internal">
    <lane id=":134_0_0" index="0" disallow="all" speed="1.39" length="30.91" width="2.50" shape="167.40,72.64 136.49,72.68">
      <param key="origId" value="151_-2"/>
    </lane>
  </edge>
  <edge id=":134_1" function="internal">
    <lane id=":134_1_0" index="0" disallow="pedestrian tram rail_urban rail rail_electric rail_fast ship" speed="9.99" length="7.88" width="3.50" shape="167.40,69.64 161.33,70.51 159.83,71.40">
      <param key="origId" value="160_-1"/>
    </lane>
  </edge>
  <edge id=":134_2" function="internal">
    <lane id=":134_2_0" index="0" disallow="pedestrian tram rail_urban rail rail_electric rail_fast ship" speed="13.89" length="30.91" width="3.50" shape="167.40,69.64 136.49,69.68">
      <param key="origId" value="151_-1"/>
    </lane>
  </edge>
  <edge id=":134_10" function="internal">
    <lane id=":134_10_0" index="0" disallow="pedestrian tram rail_urban rail rail_electric rail_fast ship" speed="9.99" length="14.47" width="3.50" shape="159.83,71.40 156.97,73.09 154.32,77.40 153.37,83.42">
      <param key="origId" value="160_-1"/>
    </lane>
  </edge>
  <edge id=":134_3" function="internal">
    <lane id=":134_3_0" index="0" allow="pedestrian" speed="2.78" length="30.91" width="6.00" shape="136.47,58.30 167.38,58.26">
      <param key="origId" value="150_4"/>
    </lane>
    <lane id=":134_3_1" index="1" disallow="all" speed="1.39" length="30.91" width="0.63" shape="136.48,61.61 167.39,61.57">
      <param key="origId" value="150_3"/>
    </lane>
    <lane id=":134_3_2" index="2" disallow="all" speed="1.39" length="30.91" width="2.50" shape="136.48,63.18 167.39,63.14">
      <param key="origId" value="150_2"/>
    </lane>
    <lane id=":134_3_3" index="3" disallow="pedestrian tram rail_urban rail rail_electric rail_fast ship" speed="13.89" length="30.91" width="3.50" shape="136.48,66.18 167.39,66.14">
      <param key="origId" value="150_1"/>
    </lane>
  </edge>
  <edge id=":134_7" function="internal">
    <lane id=":134_7_0" index="0" disallow="pedestrian tram rail_urban rail rail_electric rail_fast ship" speed="10.93" length="8.84" width="3.50" shape="136.48,66.18 143.96,67.25 145.06,67.92">
      <param key="origId" value="172_1"/>
    </lane>
  </edge>
  <edge id=":134_11" function="internal">
    <lane id=":134_11_0" index="0" disallow="pedestrian tram rail_urban rail rail_electric rail_fast ship" speed="10.93" length="18.77" width="3.50" shape="145.06,67.92 149.26,70.48 152.40,75.87 153.37,83.42">
      <param key="origId" value="172_1"/>
    </lane>
  </edge>
  <edge id=":134_8" function="internal">
    <lane id=":134_8_0" index="0" disallow="pedestrian tram rail_urban rail rail_electric rail_fast ship" speed="9.79" length="21.91" width="3.50" shape="149.87,83.37 149.11,77.37 146.62,73.09 142.41,70.53 136.49,69.68">
      <param key="origId" value="179_1"/>
    </lane>
  </edge>
  <edge id=":134_9" function="internal">
    <lane id=":134_9_0" index="0" disallow="pedestrian tram rail_urban rail rail_electric rail_fast ship" speed="11.11" length="27.93" width="3.50" shape="149.87,83.37 151.05,75.84 154.37,70.46 159.81,67.23 167.39,66.14">
      <param key="origId" value="152_1"/>
    </lane>
  </edge>
  <edge id=":189_0" function="internal">
    <lane id=":189_0_0" index="0" disallow="all" speed="1.39" length="38.11" width="2.50" shape="80.67,125.86 42.56,125.97">
      <param key="origId" value="254_6"/>
    </lane>
  </edge>
  <edge id=":189_1" function="internal">
    <lane id=":189_1_0" index="0" disallow="pedestrian tram rail_urban rail rail_electric rail_fast ship" speed="9.99" length="7.28" width="3.50" shape="80.66,122.86 74.93,123.80 73.71,124.63">
      <param key="origId" value="395_1"/>
    </lane>
  </edge>
  <edge id=":189_2" function="internal">
    <lane id=":189_2_0" index="0" disallow="pedestrian tram rail_urban rail rail_electric rail_fast ship" speed="13.89" length="38.11" width="3.50" shape="80.66,122.86 42.55,122.97">
      <param key="origId" value="254_5"/>
      <param key="signalID" value="952"/>
    </lane>
    <lane id=":189_2_1" index="1" disallow="pedestrian tram rail_urban rail rail_electric rail_fast ship" speed="13.89" length="38.11" width="3.50" shape="80.65,119.36 42.54,119.47">
      <param key="origId" value="254_4"/>
      <param key="signalID" value="952"/>
    </lane>
  </edge>
  <edge id=":189_4" function="internal">
    <lane id=":189_4_0" index="0" disallow="pedestrian tram rail_urban rail rail_electric rail_fast ship" speed="12.67" length="16.43" width="3.50" shape="80.65,119.36 71.88,117.76 65.94,113.15">
      <param key="origId" value="338_1"/>
      <param key="signalID" value="949"/>
    </lane>
  </edge>
  <edge id=":189_5" function="internal">
    <lane id=":189_5_0" index="0" disallow="all" speed="1.39" length="38.11" width="0.50" shape="80.65,117.36 42.54,117.47">
      <param key="origId" value="254_3"/>
    </lane>
    <lane id=":189_5_1" index="1" disallow="all" speed="1.39" length="38.11" width="0.50" shape="80.63,113.36 42.52,113.47">
      <param key="origId" value="254_1"/>
    </lane>
  </edge>
  <edge id=":189_24" function="internal">
    <lane id=":189_24_0" index="0" disallow="pedestrian tram rail_urban rail rail_electric rail_fast ship" speed="9.99" length="15.23" width="3.50" shape="73.71,124.63 70.84,126.58 68.37,131.20 67.53,137.67">
      <param key="origId" value="395_1"/>
    </lane>
  </edge>
  <edge id=":189_25" function="internal">
    <lane id=":189_25_0" index="0" disallow="pedestrian tram rail_urban rail rail_electric rail_fast ship" speed="12.67" length="20.79" width="3.50" shape="65.94,113.15 65.62,112.90 61.88,104.78 60.66,93.41">
      <param key="origId" value="338_1"/>
      <param key="signalID" value="949"/>
    </lane>
  </edge>
  <edge id=":189_7" function="internal">
    <lane id=":189_7_0" index="0" disallow="all" speed="1.39" length="44.24" width="2.00" shape="70.41,93.44 70.28,137.68">
      <param key="origId" value="467_-3"/>
    </lane>
  </edge>
  <edge id=":189_8" function="internal">
    <lane id=":189_8_0" index="0" disallow="pedestrian tram rail_urban rail rail_electric rail_fast ship" speed="9.87" length="22.13" width="3.50" shape="67.66,93.43 68.45,99.76 70.88,104.27 74.93,106.97 80.62,107.86">
      <param key="origId" value="344_-1"/>
    </lane>
  </edge>
  <edge id=":189_9" function="internal">
    <lane id=":189_9_0" index="0" disallow="pedestrian tram rail_urban rail rail_electric rail_fast ship" speed="13.89" length="44.24" width="3.50" shape="67.66,93.43 67.53,137.67">
      <param key="origId" value="467_-2"/>
      <param key="signalID" value="950"/>
    </lane>
    <lane id=":189_9_1" index="1" disallow="pedestrian tram rail_urban rail rail_electric rail_fast ship" speed="13.89" length="44.24" width="3.50" shape="64.16,93.42 64.03,137.66">
      <param key="origId" value="467_-1"/>
      <param key="signalID" value="950"/>
    </lane>
  </edge>
  <edge id=":189_11" function="internal">
    <lane id=":189_11_0" index="0" disallow="pedestrian tram rail_urban rail rail_electric rail_fast ship" speed="12.93" length="38.45" width="3.50" shape="64.16,93.42 62.78,104.79 58.72,112.92 51.97,117.82 42.54,119.47">
      <param key="origId" value="256_-1"/>
      <param key="signalID" value="950"/>
    </lane>
  </edge>
  <edge id=":189_12" function="internal">
    <lane id=":189_12_0" index="0" disallow="all" speed="1.39" length="38.11" width="2.50" shape="42.50,104.97 80.61,104.86">
      <param key="origId" value="255_-3"/>
      <param key="signalID" value="950"/>
    </lane>
  </edge>
  <edge id=":189_13" function="internal">
    <lane id=":189_13_0" index="0" disallow="pedestrian tram rail_urban rail rail_electric rail_fast ship" speed="10.20" length="8.11" width="3.50" shape="42.51,107.97 48.90,107.04 50.32,106.19">
      <param key="origId" value="268_-1"/>
    </lane>
  </edge>
  <edge id=":189_14" function="internal">
    <lane id=":189_14_0" index="0" disallow="pedestrian tram rail_urban rail rail_electric rail_fast ship" speed="13.89" length="38.11" width="3.50" shape="42.51,107.97 80.62,107.86">
      <param key="origId" value="255_-2"/>
      <param key="signalID" value="949"/>
    </lane>
    <lane id=":189_14_1" index="1" disallow="pedestrian tram rail_urban rail rail_electric rail_fast ship" speed="13.89" length="38.11" width="3.50" shape="42.52,111.47 80.63,111.36">
      <param key="origId" value="255_-1"/>
      <param key="signalID" value="949"/>
    </lane>
  </edge>
  <edge id=":189_16" function="internal">
    <lane id=":189_16_0" index="0" disallow="pedestrian tram rail_urban rail rail_electric rail_fast ship" speed="13.34" length="11.29" width="3.50" shape="42.52,111.47 53.49,113.08 53.66,113.18">
      <param key="origId" value="315_-1"/>
      <param key="signalID" value="949"/>
    </lane>
    <lane id=":189_16_1" index="1" disallow="pedestrian tram rail_urban rail rail_electric rail_fast ship" speed="12.89" length="9.76" width="3.50" shape="42.52,111.47 51.96,113.08 52.11,113.19">
      <param key="origId" value="296_-1"/>
      <param key="signalID" value="949"/>
    </lane>
  </edge>
  <edge id=":189_26" function="internal">
    <lane id=":189_26_0" index="0" disallow="pedestrian tram rail_urban rail rail_electric rail_fast ship" speed="10.20" length="15.42" width="3.50" shape="50.32,106.19 53.48,104.30 56.23,99.76 57.16,93.40">
      <param key="origId" value="268_-1"/>
    </lane>
  </edge>
  <edge id=":189_27" function="internal">
    <lane id=":189_27_0" index="0" disallow="pedestrian tram rail_urban rail rail_electric rail_fast ship" speed="13.34" length="30.06" width="3.50" shape="53.66,113.18 61.32,117.98 66.00,126.18 67.53,137.67">
      <param key="origId" value="315_-1"/>
      <param key="signalID" value="949"/>
    </lane>
  </edge>
  <edge id=":189_28" function="internal">
    <lane id=":189_28_0" index="0" disallow="pedestrian tram rail_urban rail rail_electric rail_fast ship" speed="12.89" length="28.83" width="3.50" shape="52.11,113.19 58.69,117.98 62.72,126.18 64.03,137.66">
      <param key="origId" value="296_-1"/>
      <param key="signalID" value="949"/>
    </lane>
  </edge>
  <edge id=":189_18" function="internal">
    <lane id=":189_18_0" index="0" disallow="all" speed="1.39" length="44.24" width="2.00" shape="54.28,137.63 54.41,93.39">
      <param key="origId" value="466_3"/>
    </lane>
  </edge>
  <edge id=":189_19" function="internal">
    <lane id=":189_19_0" index="0" disallow="pedestrian tram rail_urban rail rail_electric rail_fast ship" speed="10.16" length="23.54" width="3.50" shape="57.03,137.64 56.14,131.20 53.43,126.61 48.90,123.87 42.55,122.97">
      <param key="origId" value="286_1"/>
    </lane>
  </edge>
  <edge id=":189_20" function="internal">
    <lane id=":189_20_0" index="0" disallow="pedestrian tram rail_urban rail rail_electric rail_fast ship" speed="13.89" length="44.24" width="3.50" shape="57.03,137.64 57.16,93.40">
      <param key="origId" value="466_2"/>
      <param key="signalID" value="951"/>
    </lane>
    <lane id=":189_20_1" index="1" disallow="pedestrian tram rail_urban rail rail_electric rail_fast ship" speed="13.89" length="44.24" width="3.50" shape="60.53,137.65 60.66,93.41">
      <param key="origId" value="466_1"/>
      <param key="signalID" value="951"/>
    </lane>
  </edge>
  <edge id=":189_22" function="internal">
    <lane id=":189_22_0" index="0" disallow="pedestrian tram rail_urban rail rail_electric rail_fast ship" speed="13.25" length="40.47" width="3.50" shape="60.53,137.65 61.82,124.64 65.60,115.33 71.86,109.74 80.62,107.86">
      <param key="origId" value="382_1"/>
      <param key="signalID" value="952"/>
    </lane>
    <lane id=":189_22_1" index="1" disallow="pedestrian tram rail_urban rail rail_electric rail_fast ship" speed="12.77" length="37.49" width="3.50" shape="60.53,137.65 61.82,126.17 65.59,117.96 71.87,113.02 80.63,111.36">
      <param key="origId" value="375_1"/>
      <param key="signalID" value="952"/>
    </lane>
  </edge>
  <edge id=":23_0" function="internal">
    <lane id=":23_0_0" index="0" allow="pedestrian" speed="2.78" length="39.32" width="6.00" shape="81.69,211.63 42.38,212.04">
      <param key="origId" value="90_5"/>
    </lane>
    <lane id=":23_0_1" index="1" disallow="all" speed="1.39" length="39.32" width="0.63" shape="81.66,208.31 42.34,208.72">
      <param key="origId" value="90_4"/>
    </lane>
    <lane id=":23_0_2" index="2" disallow="all" speed="1.39" length="39.32" width="2.00" shape="81.65,207.00 42.33,207.41">
      <param key="origId" value="90_3"/>
    </lane>
    <lane id=":23_0_3" index="3" disallow="pedestrian tram rail_urban rail rail_electric rail_fast ship" speed="13.89" length="39.32" width="3.50" shape="81.62,204.25 42.30,204.66">
      <param key="origId" value="90_2"/>
      <param key="signalID" value="943"/>
    </lane>
    <lane id=":23_0_4" index="4" disallow="pedestrian tram rail_urban rail rail_electric rail_fast ship" speed="13.89" length="39.32" width="3.50" shape="81.58,200.75 42.26,201.16">
      <param key="origId" value="90_1"/>
      <param key="signalID" value="943"/>
    </lane>
  </edge>
  <edge id=":23_5" function="internal">
    <lane id=":23_5_0" index="0" disallow="pedestrian tram rail_urban rail rail_electric rail_fast ship" speed="12.16" length="9.91" width="3.50" shape="81.58,200.75 72.51,199.49 71.87,199.10">
      <param key="origId" value="24_1"/>
      <param key="signalID" value="944"/>
    </lane>
  </edge>
  <edge id=":23_14" function="internal">
    <lane id=":23_14_0" index="0" disallow="pedestrian tram rail_urban rail rail_electric rail_fast ship" speed="12.16" length="24.23" width="3.50" shape="71.87,199.10 66.00,195.50 62.07,188.77 60.70,179.32">
      <param key="origId" value="24_1"/>
      <param key="signalID" value="944"/>
    </lane>
  </edge>
  <edge id=":23_6" function="internal">
    <lane id=":23_6_0" index="0" disallow="pedestrian tram rail_urban rail rail_electric rail_fast ship" speed="10.03" length="22.83" width="3.50" shape="67.70,179.27 68.61,185.65 71.21,190.20 75.51,192.90 81.51,193.75">
      <param key="origId" value="41_1"/>
    </lane>
    <lane id=":23_6_1" index="1" disallow="pedestrian tram rail_urban rail rail_electric rail_fast ship" speed="10.62" length="25.75" width="3.50" shape="67.70,179.27 68.62,187.19 71.23,192.82 75.54,196.18 81.54,197.25">
      <param key="origId" value="33_1"/>
    </lane>
  </edge>
  <edge id=":23_8" function="internal">
    <lane id=":23_8_0" index="0" disallow="pedestrian tram rail_urban rail rail_electric rail_fast ship" speed="12.86" length="38.15" width="3.50" shape="64.20,179.29 62.90,190.30 58.82,198.20 51.95,202.99 42.30,204.66">
      <param key="origId" value="100_1"/>
      <param key="signalID" value="945"/>
    </lane>
    <lane id=":23_8_1" index="1" disallow="pedestrian tram rail_urban rail rail_electric rail_fast ship" speed="12.39" length="35.30" width="3.50" shape="64.20,179.29 62.89,188.77 58.80,195.58 51.92,199.70 42.26,201.16">
      <param key="origId" value="105_1"/>
      <param key="signalID" value="945"/>
    </lane>
  </edge>
  <edge id=":23_10" function="internal">
    <lane id=":23_10_0" index="0" disallow="all" speed="1.39" length="39.32" width="2.00" shape="42.16,191.41 81.48,191.00">
      <param key="origId" value="89_-3"/>
      <param key="signalID" value="943"/>
    </lane>
  </edge>
  <edge id=":23_11" function="internal">
    <lane id=":23_11_0" index="0" disallow="pedestrian tram rail_urban rail rail_electric rail_fast ship" speed="10.30" length="8.34" width="3.50" shape="42.19,194.16 48.80,193.17 50.23,192.32">
      <param key="origId" value="125_-1"/>
    </lane>
  </edge>
  <edge id=":23_12" function="internal">
    <lane id=":23_12_0" index="0" disallow="pedestrian tram rail_urban rail rail_electric rail_fast ship" speed="13.89" length="39.32" width="3.50" shape="42.19,194.16 81.51,193.75">
      <param key="origId" value="89_-2"/>
      <param key="signalID" value="945"/>
    </lane>
    <lane id=":23_12_1" index="1" disallow="pedestrian tram rail_urban rail rail_electric rail_fast ship" speed="13.89" length="39.32" width="3.50" shape="42.23,197.66 81.54,197.25">
      <param key="origId" value="89_-1"/>
      <param key="signalID" value="945"/>
    </lane>
  </edge>
  <edge id=":23_15" function="internal">
    <lane id=":23_15_0" index="0" disallow="pedestrian tram rail_urban rail rail_electric rail_fast ship" speed="10.30" length="15.69" width="3.50" shape="50.23,192.32 53.50,190.38 56.31,185.77 57.20,179.34">
      <param key="origId" value="125_-1"/>
    </lane>
  </edge>
  <edge id=":468_0" function="internal">
    <lane id=":468_0_0" index="0" disallow="all" speed="1.39" length="41.57" width="2.00" shape="80.84,8.68 68.49,8.24 59.97,7.51 51.55,7.62 39.50,9.73">
      <param key="origId" value="515_-3"/>
      <param key="signalID" value="953"/>
    </lane>
  </edge>
  <edge id=":468_1" function="internal">
    <lane id=":468_1_0" index="0" disallow="pedestrian tram rail_urban rail rail_electric rail_fast ship" speed="10.02" length="6.69" width="3.50" shape="80.83,5.93 75.17,6.90 74.39,7.45">
      <param key="origId" value="476_-1"/>
    </lane>
    <lane id=":468_1_1" index="1" disallow="pedestrian tram rail_urban rail rail_electric rail_fast ship" speed="10.60" length="8.25" width="3.50" shape="80.83,5.93 73.64,6.91 72.77,7.39">
      <param key="origId" value="486_-1"/>
    </lane>
  </edge>
  <edge id=":468_3" function="internal">
    <lane id=":468_3_0" index="0" disallow="pedestrian tram rail_urban rail rail_electric rail_fast ship" speed="13.89" length="42.56" width="3.50" shape="80.83,5.93 68.30,5.49 59.65,4.77 51.11,4.90 38.88,7.06">
      <param key="origId" value="515_-2"/>
      <param key="signalID" value="954"/>
    </lane>
    <lane id=":468_3_1" index="1" disallow="pedestrian tram rail_urban rail rail_electric rail_fast ship" speed="13.89" length="42.56" width="3.50" shape="80.81,2.43 68.05,2.00 59.24,1.28 50.54,1.44 38.09,3.65">
      <param key="origId" value="515_-1"/>
      <param key="signalID" value="954"/>
    </lane>
  </edge>
  <edge id=":468_12" function="internal">
    <lane id=":468_12_0" index="0" disallow="pedestrian tram rail_urban rail rail_electric rail_fast ship" speed="10.02" length="15.91" width="3.50" shape="74.39,7.45 71.12,9.74 68.69,14.45 67.86,21.02">
      <param key="origId" value="476_-1"/>
    </lane>
  </edge>
  <edge id=":468_13" function="internal">
    <lane id=":468_13_0" index="0" disallow="pedestrian tram rail_urban rail rail_electric rail_fast ship" speed="10.60" length="17.14" width="3.50" shape="72.77,7.39 68.50,9.75 65.41,14.45 64.36,21.01">
      <param key="origId" value="486_-1"/>
    </lane>
  </edge>
  <edge id=":468_5" function="internal">
    <lane id=":468_5_0" index="0" allow="pedestrian" speed="2.78" length="44.97" width="6.00" shape="34.84,-10.37 48.22,-12.78 57.56,-13.05 67.01,-12.38 80.72,-11.96">
      <param key="origId" value="516_5"/>
    </lane>
    <lane id=":468_5_1" index="1" disallow="all" speed="1.39" length="44.97" width="0.63" shape="35.59,-7.14 48.75,-9.50 57.95,-9.75 67.25,-9.06 80.74,-8.64">
      <param key="origId" value="516_4"/>
    </lane>
    <lane id=":468_5_2" index="2" disallow="all" speed="1.39" length="44.97" width="2.00" shape="35.89,-5.85 48.97,-8.20 58.10,-8.44 67.34,-7.75 80.75,-7.32">
      <param key="origId" value="516_3"/>
    </lane>
    <lane id=":468_5_3" index="3" disallow="pedestrian tram rail_urban rail rail_electric rail_fast ship" speed="13.89" length="44.97" width="3.50" shape="36.51,-3.17 49.41,-5.48 58.42,-5.70 67.54,-5.00 80.76,-4.57">
      <param key="origId" value="516_2"/>
      <param key="signalID" value="955"/>
    </lane>
    <lane id=":468_5_4" index="4" disallow="pedestrian tram rail_urban rail rail_electric rail_fast ship" speed="13.89" length="44.97" width="3.50" shape="37.30,0.24 49.98,-2.02 58.83,-2.21 67.79,-1.50 80.78,-1.07">
      <param key="origId" value="516_1"/>
      <param key="signalID" value="956"/>
    </lane>
  </edge>
  <edge id=":468_10" function="internal">
    <lane id=":468_10_0" index="0" disallow="pedestrian tram rail_urban rail rail_electric rail_fast ship" speed="10.25" length="28.06" width="3.50" shape="57.36,20.99 56.23,13.28 52.77,8.39 46.98,6.32 38.88,7.06">
      <param key="origId" value="472_1"/>
      <param key="signalID" value="954"/>
    </lane>
    <lane id=":468_10_1" index="1" disallow="pedestrian tram rail_urban rail rail_electric rail_fast ship" speed="11.35" length="34.71" width="3.50" shape="60.86,21.00 59.46,11.42 55.20,5.34 48.08,2.75 38.09,3.65">
      <param key="origId" value="469_1"/>
      <param key="signalID" value="954"/>
    </lane>
  </edge>
  <edge id=":532_0" function="internal">
    <lane id=":532_0_0" index="0" disallow="all" speed="1.39" length="46.64" width="2.00" shape="205.99,140.48 205.67,93.84">
      <param key="origId" value="565_3"/>
    </lane>
  </edge>
  <edge id=":532_1" function="internal">
    <lane id=":532_1_0" index="0" disallow="pedestrian tram rail_urban rail rail_electric rail_fast ship" speed="11.00" length="9.48" width="3.50" shape="208.74,140.46 207.68,132.61 206.93,131.25">
      <param key="origId" value="655_1"/>
    </lane>
  </edge>
  <edge id=":532_2" function="internal">
    <lane id=":532_2_0" index="0" disallow="pedestrian tram rail_urban rail rail_electric rail_fast ship" speed="13.89" length="46.64" width="3.50" shape="208.74,140.46 208.42,93.82">
      <param key="origId" value="565_2"/>
      <param key="signalID" value="957"/>
    </lane>
    <lane id=":532_2_1" index="1" disallow="pedestrian tram rail_urban rail rail_electric rail_fast ship" speed="13.89" length="46.64" width="3.50" shape="212.24,140.44 211.92,93.80">
      <param key="origId" value="565_1"/>
      <param key="signalID" value="957"/>
    </lane>
  </edge>
  <edge id=":532_15" function="internal">
    <lane id=":532_15_0" index="0" disallow="pedestrian tram rail_urban rail rail_electric rail_fast ship" speed="11.00" length="18.11" width="3.50" shape="206.93,131.25 204.60,127.00 199.52,123.65 192.42,122.55">
      <param key="origId" value="655_1"/>
    </lane>
  </edge>
  <edge id=":532_4" function="internal">
    <lane id=":532_4_0" index="0" allow="pedestrian" speed="2.78" length="46.64" width="6.00" shape="226.31,93.70 226.63,140.34">
      <param key="origId" value="566_-5"/>
      <param key="signalID" value="958"/>
    </lane>
    <lane id=":532_4_1" index="1" disallow="all" speed="1.39" length="46.64" width="0.63" shape="222.99,93.72 223.31,140.36">
      <param key="origId" value="566_-4"/>
      <param key="signalID" value="958"/>
    </lane>
    <lane id=":532_4_2" index="2" disallow="all" speed="1.39" length="46.64" width="2.00" shape="221.67,93.73 221.99,140.37">
      <param key="origId" value="566_-3"/>
      <param key="signalID" value="958"/>
    </lane>
    <lane id=":532_4_3" index="3" disallow="pedestrian tram rail_urban rail rail_electric rail_fast ship" speed="13.89" length="46.64" width="3.50" shape="218.92,93.75 219.24,140.39">
      <param key="origId" value="566_-2"/>
      <param key="signalID" value="958"/>
    </lane>
    <lane id=":532_4_4" index="4" disallow="pedestrian tram rail_urban rail rail_electric rail_fast ship" speed="13.89" length="46.64" width="3.50" shape="215.42,93.77 215.74,140.41">
      <param key="origId" value="566_-1"/>
      <param key="signalID" value="958"/>
    </lane>
  </edge>
  <edge id=":532_9" function="internal">
    <lane id=":532_9_0" index="0" disallow="pedestrian tram rail_urban rail rail_electric rail_fast ship" speed="13.43" length="13.33" width="3.50" shape="215.42,93.77 214.06,106.34 213.76,106.96">
      <param key="origId" value="584_-1"/>
      <param key="signalID" value="958"/>
    </lane>
    <lane id=":532_9_1" index="1" disallow="pedestrian tram rail_urban rail rail_electric rail_fast ship" speed="12.97" length="11.74" width="3.50" shape="215.42,93.77 214.05,104.81 213.75,105.35">
      <param key="origId" value="597_-1"/>
      <param key="signalID" value="958"/>
    </lane>
  </edge>
  <edge id=":532_16" function="internal">
    <lane id=":532_16_0" index="0" disallow="pedestrian tram rail_urban rail rail_electric rail_fast ship" speed="13.43" length="28.58" width="3.50" shape="213.76,106.96 209.77,115.32 202.56,120.73 192.42,122.55">
      <param key="origId" value="584_-1"/>
      <param key="signalID" value="958"/>
    </lane>
  </edge>
  <edge id=":532_17" function="internal">
    <lane id=":532_17_0" index="0" disallow="pedestrian tram rail_urban rail rail_electric rail_fast ship" speed="12.97" length="27.25" width="3.50" shape="213.75,105.35 209.76,112.70 202.54,117.45 192.41,119.05">
      <param key="origId" value="597_-1"/>
      <param key="signalID" value="958"/>
    </lane>
  </edge>
  <edge id=":532_11" function="internal">
    <lane id=":532_11_0" index="0" disallow="pedestrian tram rail_urban rail rail_electric rail_fast ship" speed="10.27" length="24.05" width="3.50" shape="192.38,107.55 199.43,106.67 204.46,104.10 207.46,99.81 208.42,93.82">
      <param key="origId" value="579_-1"/>
    </lane>
    <lane id=":532_11_1" index="1" disallow="pedestrian tram rail_urban rail rail_electric rail_fast ship" speed="10.86" length="27.02" width="3.50" shape="192.38,107.55 200.96,106.67 207.08,104.08 210.74,99.79 211.92,93.80">
      <param key="origId" value="608_-1"/>
    </lane>
  </edge>