<?xml version='1.0' encoding='UTF-8'?>
<!-- generated on 2022-09-13 23:32:04 by Eclipse SUMO netconvert Version 1.10.0
<configuration xmlns:xsi="http://www.w3.org/2001/XMLSchema-instance" xsi:noNamespaceSchemaLocation="http://sumo.dlr.de/xsd/netconvertConfiguration.xsd">

    <input>
        <type-files value="/scratch/2020_CARLA_challenge/sumo_integration/util/data/opendrive_netconvert.typ.xml"/>
        <opendrive-files value="/home/laura/DrivingSimulators/CARLA_0.9.10/CarlaUE4/Content/Carla/Maps/OpenDrive/Town03.xodr"/>
    </input>

    <output>
        <output-file value="maps/Town03.net.xml"/>
        <output.original-names value="true"/>
    </output>

    <processing>
        <geometry.remove value="true"/>
        <geometry.min-radius.fix value="true"/>
        <geometry.max-grade.fix value="false"/>
    </processing>

    <tls_building>
        <tls.discard-loaded value="true"/>
        <tls.left-green.time value="0"/>
    </tls_building>

    <junctions>
        <rectangular-lane-cut value="true"/>
    </junctions>

    <formats>
        <opendrive.import-all-lanes value="true"/>
        <opendrive.curve-resolution value="0.25"/>
    </formats>

    <report>
        <aggregate-warnings value="5"/>
    </report>

</configuration>
-->
<net xmlns:xsi="http://www.w3.org/2001/XMLSchema-instance" version="1.9" junctionCornerDetail="5" rectangularLaneCut="true" limitTurnSpeed="5.50" xsi:noNamespaceSchemaLocation="http://sumo.dlr.de/xsd/net_file.xsd">
  <location netOffset="286.97,269.44" convBoundary="0.00,0.00,597.84,582.58" origBoundary="0.000000,0.000000,0.000000,0.000000" projParameter="+proj=tmerc +lat_0=0 +lon_0=0 +k=1 +x_0=0 +y_0=0 +datum=WGS84 +units=m +geoidgrids=egm96_15.gtx +vunits=m +no_defs "/>
  <type id="bidirectional" priority="1" speed="1.39" disallow="pedestrian tram rail_urban rail rail_electric rail_fast ship" width="3.65"/>
  <type id="biking" priority="-1" speed="5.56" allow="bicycle" width="1.50"/>
  <type id="border" priority="0" speed="1.39" disallow="all" discard="1" width="0.10"/>
  <type id="driving" priority="1" speed="13.89" disallow="pedestrian tram rail_urban rail rail_electric rail_fast ship" width="3.65"/>
  <type id="entry" priority="1" speed="22.22" disallow="pedestrian tram rail_urban rail rail_electric rail_fast ship" width="3.65"/>
  <type id="exit" priority="1" speed="22.22" disallow="pedestrian tram rail_urban rail rail_electric rail_fast ship" width="3.65"/>
  <type id="median" priority="0" speed="1.39" disallow="all" discard="1" width="0.10"/>
  <type id="mwyEntry" priority="1" speed="22.22" allow="private emergency authority army vip passenger hov taxi bus coach delivery truck trailer motorcycle evehicle custom1 custom2" width="3.65"/>
  <type id="mwyExit" priority="1" speed="22.22" allow="private emergency authority army vip passenger hov taxi bus coach delivery truck trailer motorcycle evehicle custom1 custom2" width="3.65"/>
  <type id="none" priority="0" speed="1.39" disallow="all" discard="1" width="1.00"/>
  <type id="offRamp" priority="1" speed="22.22" allow="private emergency authority army vip passenger hov taxi bus coach delivery truck trailer motorcycle evehicle custom1 custom2" width="3.65"/>
  <type id="onRamp" priority="1" speed="22.22" allow="private emergency authority army vip passenger hov taxi bus coach delivery truck trailer motorcycle evehicle custom1 custom2" width="3.65"/>
  <type id="parking" priority="1" speed="1.39" disallow="pedestrian tram rail_urban rail rail_electric rail_fast ship" width="2.50"/>
  <type id="rail" priority="3" speed="33.33" allow="rail_urban rail rail_electric rail_fast" width="3.65"/>
  <type id="restricted" priority="0" speed="13.89" disallow="all" width="3.65"/>
  <type id="roadWorks" priority="0" speed="1.39" allow="authority" width="3.65"/>
  <type id="shoulder" priority="0" speed="1.39" disallow="all" discard="1" width="1.00"/>
  <type id="sidewalk" priority="-2" speed="2.78" allow="pedestrian" width="2.50"/>
  <type id="special1" priority="1" speed="22.22" allow="custom1" discard="1" width="3.65"/>
  <type id="special2" priority="1" speed="22.22" allow="custom2" discard="1" width="3.65"/>
  <type id="special3" priority="1" speed="22.22" allow="custom1 custom2" discard="1" width="3.65"/>
  <type id="stop" priority="1" speed="13.89" disallow="pedestrian tram rail_urban rail rail_electric rail_fast ship" width="3.65"/>
  <type id="tram" priority="2" speed="13.89" allow="tram" width="3.65"/>
  <edge id=":1019_0" function="internal">
    <lane id=":1019_0_0" index="0" allow="pedestrian" speed="2.78" length="22.61" width="2.00" shape="300.65,90.30 300.51,112.91">
      <param key="origId" value="1030_9"/>
    </lane>
    <lane id=":1019_0_1" index="1" allow="pedestrian" speed="2.78" length="22.61" width="2.00" shape="298.65,90.29 298.51,112.90">
      <param key="origId" value="1030_8"/>
    </lane>
    <lane id=":1019_0_2" index="2" disallow="all" speed="1.39" length="22.61" width="0.63" shape="297.33,90.28 297.19,112.89">
      <param key="origId" value="1030_7"/>
    </lane>
    <lane id=":1019_0_3" index="3" disallow="all" speed="1.39" length="22.61" width="2.50" shape="295.77,90.27 295.62,112.88">
      <param key="origId" value="1030_6"/>
    </lane>
    <lane id=":1019_0_4" index="4" disallow="pedestrian tram rail_urban rail rail_electric rail_fast ship" speed="13.89" length="22.61" width="3.50" shape="292.77,90.25 292.62,112.86">
      <param key="origId" value="1030_5"/>
    </lane>
    <lane id=":1019_0_5" index="5" disallow="pedestrian tram rail_urban rail rail_electric rail_fast ship" speed="13.89" length="22.61" width="3.50" shape="289.27,90.23 289.12,112.84">
      <param key="origId" value="1030_4"/>
    </lane>
    <lane id=":1019_0_6" index="6" disallow="all" speed="1.39" length="22.61" width="0.50" shape="287.27,90.21 287.12,112.82">
      <param key="origId" value="1030_3"/>
    </lane>
    <lane id=":1019_0_7" index="7" disallow="all" speed="1.39" length="22.61" width="3.50" shape="285.27,90.20 285.12,112.81">
      <param key="origId" value="1030_2"/>
    </lane>
    <lane id=":1019_0_8" index="8" disallow="all" speed="1.39" length="22.61" width="0.50" shape="283.27,90.19 283.12,112.80">
      <param key="origId" value="1030_1"/>
    </lane>
  </edge>
  <edge id=":1019_9" function="internal">
    <lane id=":1019_9_0" index="0" disallow="all" speed="1.39" length="22.61" width="2.50" shape="274.62,112.74 274.77,90.14">
      <param key="origId" value="1031_-3"/>
    </lane>
  </edge>
  <edge id=":1019_10" function="internal">
    <lane id=":1019_10_0" index="0" disallow="pedestrian tram rail_urban rail rail_electric rail_fast ship" speed="11.02" length="6.36" width="3.50" shape="277.62,112.76 276.83,108.20 275.91,106.74">
      <param key="origId" value="1020_-1"/>
    </lane>
  </edge>
  <edge id=":1019_11" function="internal">
    <lane id=":1019_11_0" index="0" disallow="pedestrian tram rail_urban rail rail_electric rail_fast ship" speed="13.89" length="22.61" width="3.50" shape="277.62,112.76 277.77,90.15">
      <param key="origId" value="1031_-2"/>
    </lane>
    <lane id=":1019_11_1" index="1" disallow="pedestrian tram rail_urban rail rail_electric rail_fast ship" speed="13.89" length="22.61" width="3.50" shape="281.12,112.79 281.27,90.18">
      <param key="origId" value="1031_-1"/>
    </lane>
  </edge>
  <edge id=":1019_13" function="internal">
    <lane id=":1019_13_0" index="0" disallow="pedestrian tram rail_urban rail rail_electric rail_fast ship" speed="11.02" length="14.46" width="3.50" shape="275.91,106.74 274.38,104.29 270.27,101.03 264.51,98.42">
      <param key="origId" value="1020_-1"/>
    </lane>
  </edge>
  <edge id=":103_0" function="internal">
    <lane id=":103_0_0" index="0" disallow="pedestrian tram rail_urban rail rail_electric rail_fast ship" speed="10.15" length="23.49" width="3.50" shape="308.17,138.65 301.29,139.39 296.37,141.85 293.39,146.01 292.38,151.88">
      <param key="origId" value="203_1"/>
      <param key="signalID" value="1997"/>
    </lane>
  </edge>
  <edge id=":103_1" function="internal">
    <lane id=":103_1_0" index="0" disallow="pedestrian tram rail_urban rail rail_electric rail_fast ship" speed="13.89" length="40.19" width="3.50" shape="308.17,138.65 267.98,138.54">
      <param key="origId" value="144_1"/>
      <param key="signalID" value="1997"/>
    </lane>
  </edge>
  <edge id=":103_2" function="internal">
    <lane id=":103_2_0" index="0" disallow="pedestrian tram rail_urban rail rail_electric rail_fast ship" speed="12.67" length="36.82" width="3.50" shape="308.17,138.65 296.27,137.36 287.79,133.86 282.73,128.17 281.08,120.28">
      <param key="origId" value="227_1"/>
      <param key="signalID" value="1995"/>
    </lane>
  </edge>
  <edge id=":103_3" function="internal">
    <lane id=":103_3_0" index="0" disallow="all" speed="1.39" length="31.53" width="2.50" shape="295.58,120.37 295.38,151.90">
      <param key="origId" value="183_6"/>
    </lane>
  </edge>
  <edge id=":103_4" function="internal">
    <lane id=":103_4_0" index="0" disallow="pedestrian tram rail_urban rail rail_electric rail_fast ship" speed="10.41" length="7.88" width="3.50" shape="292.58,120.35 293.52,126.74 294.28,127.93">
      <param key="origId" value="222_1"/>
      <param key="signalID" value="1996"/>
    </lane>
  </edge>
  <edge id=":103_5" function="internal">
    <lane id=":103_5_0" index="0" disallow="pedestrian tram rail_urban rail rail_electric rail_fast ship" speed="13.89" length="31.53" width="3.50" shape="292.58,120.35 292.38,151.88">
      <param key="origId" value="183_5"/>
      <param key="signalID" value="1995"/>
    </lane>
    <lane id=":103_5_1" index="1" disallow="pedestrian tram rail_urban rail rail_electric rail_fast ship" speed="13.89" length="31.53" width="3.50" shape="289.08,120.33 288.88,151.86">
      <param key="origId" value="183_4"/>
      <param key="signalID" value="1995"/>
    </lane>
  </edge>
  <edge id=":103_7" function="internal">
    <lane id=":103_7_0" index="0" disallow="pedestrian tram rail_urban rail rail_electric rail_fast ship" speed="11.71" length="16.38" width="3.50" shape="289.08,120.33 287.71,128.47 283.74,134.23 282.73,134.74">
      <param key="origId" value="123_1"/>
    </lane>
  </edge>
  <edge id=":103_8" function="internal">
    <lane id=":103_8_0" index="0" disallow="all" speed="1.39" length="31.53" width="0.50" shape="287.08,120.31 286.88,151.85">
      <param key="origId" value="183_3"/>
    </lane>
    <lane id=":103_8_1" index="1" disallow="all" speed="1.39" length="31.53" width="0.50" shape="283.08,120.29 282.88,151.82">
      <param key="origId" value="183_1"/>
    </lane>
  </edge>
  <edge id=":103_18" function="internal">
    <lane id=":103_18_0" index="0" disallow="pedestrian tram rail_urban rail rail_electric rail_fast ship" speed="10.41" length="16.63" width="3.50" shape="294.28,127.93 296.44,131.34 301.34,134.14 308.22,135.15">
      <param key="origId" value="222_1"/>
      <param key="signalID" value="1996"/>
    </lane>
  </edge>
  <edge id=":103_19" function="internal">
    <lane id=":103_19_0" index="0" disallow="pedestrian tram rail_urban rail rail_electric rail_fast ship" speed="11.71" length="15.49" width="3.50" shape="282.73,134.74 277.17,137.58 267.98,138.54">
      <param key="origId" value="123_1"/>
    </lane>
  </edge>
  <edge id=":103_10" function="internal">
    <lane id=":103_10_0" index="0" disallow="pedestrian tram rail_urban rail rail_electric rail_fast ship" speed="9.33" length="19.82" width="3.50" shape="268.06,135.04 272.19,134.20 275.15,131.45 276.95,126.80 277.58,120.25">
      <param key="origId" value="130_-1"/>
      <param key="signalID" value="1996"/>
    </lane>
  </edge>
  <edge id=":103_11" function="internal">
    <lane id=":103_11_0" index="0" disallow="pedestrian tram rail_urban rail rail_electric rail_fast ship" speed="13.89" length="40.16" width="3.50" shape="268.06,135.04 308.22,135.15">
      <param key="origId" value="139_-1"/>
      <param key="signalID" value="1996"/>
    </lane>
  </edge>
  <edge id=":103_12" function="internal">
    <lane id=":103_12_0" index="0" disallow="pedestrian tram rail_urban rail rail_electric rail_fast ship" speed="11.56" length="30.28" width="3.50" shape="268.06,135.04 277.21,136.27 283.72,139.48 287.61,144.68 288.88,151.86">
      <param key="origId" value="110_-1"/>
      <param key="signalID" value="1997"/>
    </lane>
  </edge>
  <edge id=":103_13" function="internal">
    <lane id=":103_13_0" index="0" disallow="all" speed="1.39" length="31.53" width="2.50" shape="274.38,151.77 274.58,120.23">
      <param key="origId" value="184_-3"/>
    </lane>
  </edge>
  <edge id=":103_14" function="internal">
    <lane id=":103_14_0" index="0" disallow="pedestrian tram rail_urban rail rail_electric rail_fast ship" speed="9.10" length="8.65" width="3.50" shape="277.38,151.79 276.82,146.07 275.68,143.39">
      <param key="origId" value="104_-1"/>
    </lane>
  </edge>
  <edge id=":103_15" function="internal">
    <lane id=":103_15_0" index="0" disallow="pedestrian tram rail_urban rail rail_electric rail_fast ship" speed="13.89" length="31.53" width="3.50" shape="277.38,151.79 277.58,120.25">
      <param key="origId" value="184_-2"/>
      <param key="signalID" value="1994"/>
    </lane>
    <lane id=":103_15_1" index="1" disallow="pedestrian tram rail_urban rail rail_electric rail_fast ship" speed="13.89" length="31.53" width="3.50" shape="280.88,151.81 281.08,120.28">
      <param key="origId" value="184_-1"/>
      <param key="signalID" value="1994"/>
    </lane>
  </edge>
  <edge id=":103_17" function="internal">
    <lane id=":103_17_0" index="0" disallow="pedestrian tram rail_urban rail rail_electric rail_fast ship" speed="12.46" length="7.64" width="3.50" shape="280.88,151.81 282.63,144.38">
      <param key="origId" value="213_-1"/>
      <param key="signalID" value="1995"/>
    </lane>
  </edge>
  <edge id=":103_20" function="internal">
    <lane id=":103_20_0" index="0" disallow="pedestrian tram rail_urban rail rail_electric rail_fast ship" speed="9.10" length="9.67" width="3.50" shape="275.68,143.39 275.07,141.96 272.12,139.45 267.98,138.54">
      <param key="origId" value="104_-1"/>
    </lane>
  </edge>
  <edge id=":103_21" function="internal">
    <lane id=":103_21_0" index="0" disallow="pedestrian tram rail_urban rail rail_electric rail_fast ship" speed="12.46" length="28.37" width="3.50" shape="282.63,144.38 287.77,139.12 296.30,136.05 308.22,135.15">
      <param key="origId" value="213_-1"/>
      <param key="signalID" value="1995"/>
    </lane>
  </edge>
  <edge id=":1038_0" function="internal">
    <lane id=":1038_0_0" index="0" allow="pedestrian" speed="2.78" length="34.70" width="2.00" shape="472.60,221.48 437.90,221.39">
      <param key="origId" value="1050_-6"/>
    </lane>
    <lane id=":1038_0_1" index="1" allow="pedestrian" speed="2.78" length="34.70" width="2.00" shape="472.61,219.48 437.91,219.39">
      <param key="origId" value="1050_-5"/>
    </lane>
    <lane id=":1038_0_2" index="2" allow="pedestrian" speed="2.78" length="34.70" width="2.00" shape="472.61,217.48 437.91,217.39">
      <param key="origId" value="1050_-4"/>
    </lane>
    <lane id=":1038_0_3" index="3" disallow="all" speed="1.39" length="34.70" width="0.63" shape="472.62,216.16 437.92,216.07">
      <param key="origId" value="1050_-3"/>
    </lane>
    <lane id=":1038_0_4" index="4" disallow="pedestrian tram rail_urban rail rail_electric rail_fast ship" speed="13.89" length="34.70" width="3.50" shape="472.63,210.59 437.93,210.50">
      <param key="origId" value="1050_-1"/>
    </lane>
  </edge>
  <edge id=":1038_5" function="internal">
    <lane id=":1038_5_0" index="0" disallow="pedestrian tram rail_urban rail rail_electric rail_fast ship" speed="11.59" length="9.16" width="3.50" shape="472.63,210.59 464.54,209.34,0.04 463.72,208.82,0.04">
      <param key="origId" value="1066_-1"/>
    </lane>
  </edge>
  <edge id=":1038_10" function="internal">
    <lane id=":1038_10_0" index="0" disallow="pedestrian tram rail_urban rail rail_electric rail_fast ship" speed="11.59" length="21.59" width="3.50" shape="463.72,208.82,0.04 458.77,205.65,0.07 455.30,199.51,0.11 454.15,190.93,0.15">
      <param key="origId" value="1066_-1"/>
    </lane>
  </edge>
  <edge id=":1038_6" function="internal">
    <lane id=":1038_6_0" index="0" disallow="pedestrian tram rail_urban rail rail_electric rail_fast ship" speed="10.51" length="25.11" width="3.50" shape="457.65,190.93,0.15 458.59,197.99,0.11 461.40,203.03,0.07 466.08,206.07,0.04 472.64,207.09">
      <param key="origId" value="1059_-1"/>
    </lane>
  </edge>
  <edge id=":1038_7" function="internal">
    <lane id=":1038_7_0" index="0" disallow="pedestrian tram rail_urban rail rail_electric rail_fast ship" speed="11.74" length="31.70" width="3.50" shape="457.65,190.93,0.15 456.42,199.51,0.11 452.72,205.63,0.07 446.56,209.30,0.04 437.93,210.50">
      <param key="origId" value="1070_-1"/>
    </lane>
  </edge>
  <edge id=":1038_8" function="internal">
    <lane id=":1038_8_0" index="0" disallow="pedestrian tram rail_urban rail rail_electric rail_fast ship" speed="10.68" length="26.04" width="3.50" shape="437.94,207.00 445.03,206.01,0.04 450.10,203.00,0.07 453.14,197.98,0.11 454.15,190.93,0.15">
      <param key="origId" value="1073_1"/>
    </lane>
  </edge>
  <edge id=":1038_9" function="internal">
    <lane id=":1038_9_0" index="0" disallow="pedestrian tram rail_urban rail rail_electric rail_fast ship" speed="13.89" length="34.70" width="3.50" shape="437.94,207.00 472.64,207.09">
      <param key="origId" value="1049_1"/>
    </lane>
  </edge>
  <edge id=":1082_0" function="internal">
    <lane id=":1082_0_0" index="0" disallow="all" speed="1.39" length="25.88" width="0.63" shape="316.55,281.67,-0.01 310.56,282.89,-0.01 305.79,286.13,-0.01 302.24,291.39,-0.00 299.89,298.68">
      <param key="origId" value="1105_5"/>
    </lane>
    <lane id=":1082_0_1" index="1" disallow="all" speed="1.39" length="27.63" width="1.89" shape="316.50,280.33,-0.01 310.08,281.63,-0.01 304.97,285.07,-0.01 301.16,290.67,-0.00 298.66,298.42">
      <param key="origId" value="1105_4"/>
    </lane>
  </edge>
  <edge id=":1082_2" function="internal">
    <lane id=":1082_2_0" index="0" disallow="all" speed="1.39" length="32.97" width="0.50" shape="316.50,280.33,-0.01 307.48,282.66,-0.01 302.08,287.34,-0.01 296.68,292.05,-0.00 287.66,294.48">
      <param key="origId" value="1089_5"/>
    </lane>
  </edge>
  <edge id=":1082_3" function="internal">
    <lane id=":1082_3_0" index="0" disallow="pedestrian tram rail_urban rail rail_electric rail_fast ship" speed="12.87" length="23.12" width="3.50" shape="316.42,277.55,-0.01 309.05,279.02,-0.01 303.19,282.89,-0.01 298.85,289.17,-0.00 298.56,290.08,-0.00">
      <param key="origId" value="1105_3"/>
    </lane>
  </edge>
  <edge id=":1082_4" function="internal">
    <lane id=":1082_4_0" index="0" disallow="pedestrian tram rail_urban rail rail_electric rail_fast ship" speed="13.89" length="33.41" width="3.50" shape="316.42,277.55,-0.01 307.34,280.01,-0.01 301.99,284.95,-0.01 296.64,289.93,-0.00 287.58,292.48">
      <param key="origId" value="1089_4"/>
    </lane>
  </edge>
  <edge id=":1082_5" function="internal">
    <lane id=":1082_5_0" index="0" disallow="pedestrian tram rail_urban rail rail_electric rail_fast ship" speed="13.78" length="26.85" width="3.50" shape="316.30,274.06,-0.01 307.70,275.73,-0.01 300.88,280.13,-0.01 295.85,287.27,-0.00 295.46,288.44,-0.00">
      <param key="origId" value="1105_2"/>
    </lane>
  </edge>
  <edge id=":1082_6" function="internal">
    <lane id=":1082_6_0" index="0" disallow="pedestrian tram rail_urban rail rail_electric rail_fast ship" speed="13.89" length="33.45" width="3.50" shape="316.30,274.06,-0.01 307.22,276.51,-0.01 301.86,281.45,-0.01 296.50,286.43,-0.00 287.43,288.98">
      <param key="origId" value="1089_3"/>
    </lane>
    <lane id=":1082_6_1" index="1" disallow="all" speed="1.39" length="33.45" width="0.50" shape="316.24,272.06,-0.01 307.15,274.51,-0.01 301.79,279.45,-0.01 296.42,284.43,-0.00 287.34,286.98">
      <param key="origId" value="1089_2"/>
    </lane>
  </edge>
  <edge id=":1082_17" function="internal">
    <lane id=":1082_17_0" index="0" disallow="pedestrian tram rail_urban rail rail_electric rail_fast ship" speed="12.87" length="8.19" width="3.50" shape="298.56,290.08,-0.00 296.02,297.87">
      <param key="origId" value="1105_3"/>
    </lane>
  </edge>
  <edge id=":1082_18" function="internal">
    <lane id=":1082_18_0" index="0" disallow="pedestrian tram rail_urban rail rail_electric rail_fast ship" speed="13.78" length="9.17" width="3.50" shape="295.46,288.44,-0.00 292.60,297.15">
      <param key="origId" value="1105_2"/>
    </lane>
  </edge>
  <edge id=":1082_8" function="internal">
    <lane id=":1082_8_0" index="0" disallow="all" speed="1.39" length="32.27" width="1.89" shape="311.91,269.63 310.18,278.63 306.40,284.15 302.06,289.61 298.66,298.42">
      <param key="origId" value="1122_-4"/>
    </lane>
  </edge>
  <edge id=":1082_9" function="internal">
    <lane id=":1082_9_0" index="0" disallow="all" speed="1.39" length="3.53" width="0.50" shape="311.91,269.63 311.36,273.12">
      <param key="origId" value="1100_-6"/>
    </lane>
  </edge>
  <edge id=":1082_10" function="internal">
    <lane id=":1082_10_0" index="0" disallow="pedestrian tram rail_urban rail rail_electric rail_fast ship" speed="13.89" length="32.15" width="3.50" shape="309.91,269.60 308.08,278.49 304.07,283.86 299.52,289.16 296.02,297.87">
      <param key="origId" value="1122_-3"/>
    </lane>
  </edge>
  <edge id=":1082_11" function="internal">
    <lane id=":1082_11_0" index="0" disallow="pedestrian tram rail_urban rail rail_electric rail_fast ship" speed="12.78" length="4.14" width="3.50" shape="309.91,269.60 309.26,273.68">
      <param key="origId" value="1100_-5"/>
    </lane>
  </edge>
  <edge id=":1082_12" function="internal">
    <lane id=":1082_12_0" index="0" disallow="pedestrian tram rail_urban rail rail_electric rail_fast ship" speed="13.89" length="31.54" width="3.50" shape="306.41,269.53 304.58,278.23 300.59,283.46 296.05,288.63 292.60,297.15">
      <param key="origId" value="1122_-2"/>
    </lane>
  </edge>
  <edge id=":1082_13" function="internal">
    <lane id=":1082_13_0" index="0" disallow="pedestrian tram rail_urban rail rail_electric rail_fast ship" speed="11.82" length="6.31" width="3.50" shape="306.41,269.53 305.42,275.77">
      <param key="origId" value="1100_-4"/>
    </lane>
    <lane id=":1082_13_1" index="1" disallow="all" speed="1.39" length="9.85" width="0.50" shape="304.42,269.49 303.23,276.87 302.01,278.91">
      <param key="origId" value="1100_-3"/>
    </lane>
    <lane id=":1082_13_2" index="2" disallow="all" speed="1.39" length="11.56" width="0.63" shape="303.85,269.48 302.70,276.63 300.47,280.33">
      <param key="origId" value="1100_-2"/>
    </lane>
    <lane id=":1082_13_3" index="3" allow="pedestrian" speed="2.78" length="24.60" width="2.00" shape="302.53,269.46 301.47,276.06 298.57,280.87 293.84,283.88 287.26,285.10">
      <param key="origId" value="1100_-1"/>
    </lane>
  </edge>
  <edge id=":1082_19" function="internal">
    <lane id=":1082_19_0" index="0" disallow="all" speed="1.39" length="35.55" width="0.50" shape="311.36,273.12 310.24,280.12 305.64,287.76 298.12,292.54 287.66,294.48">
      <param key="origId" value="1100_-6"/>
    </lane>
  </edge>
  <edge id=":1082_20" function="internal">
    <lane id=":1082_20_0" index="0" disallow="pedestrian tram rail_urban rail rail_electric rail_fast ship" speed="12.78" length="31.86" width="3.50" shape="309.26,273.68 308.37,279.25 304.13,286.29 297.20,290.70 287.58,292.48">
      <param key="origId" value="1100_-5"/>
    </lane>
  </edge>
  <edge id=":1082_21" function="internal">
    <lane id=":1082_21_0" index="0" disallow="pedestrian tram rail_urban rail rail_electric rail_fast ship" speed="11.82" length="24.28" width="3.50" shape="305.42,275.77 305.10,277.74 301.50,283.72 295.61,287.46 287.43,288.98">
      <param key="origId" value="1100_-4"/>
    </lane>
  </edge>
  <edge id=":1082_22" function="internal">
    <lane id=":1082_22_0" index="0" disallow="all" speed="1.39" length="17.66" width="0.50" shape="302.01,278.91 299.99,282.25 294.70,285.62 287.34,286.98">
      <param key="origId" value="1100_-3"/>
    </lane>
  </edge>
  <edge id=":1082_23" function="internal">
    <lane id=":1082_23_0" index="0" disallow="all" speed="1.39" length="15.08" width="0.63" shape="300.47,280.33 299.57,281.83 294.44,285.10 287.31,286.42">
      <param key="origId" value="1100_-2"/>
    </lane>
  </edge>
  <edge id=":1135_0" function="internal">
    <lane id=":1135_0_0" index="0" disallow="all" speed="1.39" length="38.50" width="2.50" shape="516.01,286.69 515.08,248.20">
      <param key="origId" value="1165_-3"/>
    </lane>
  </edge>
  <edge id=":1135_1" function="internal">
    <lane id=":1135_1_0" index="0" disallow="pedestrian tram rail_urban rail rail_electric rail_fast ship" speed="9.10" length="18.44" width="3.50" shape="519.01,286.62 518.22,281.31 516.13,277.54 512.76,275.31 508.10,274.62">
      <param key="origId" value="1158_-1"/>
    </lane>
  </edge>
  <edge id=":1135_2" function="internal">
    <lane id=":1135_2_0" index="0" disallow="pedestrian tram rail_urban rail rail_electric rail_fast ship" speed="13.89" length="38.50" width="3.50" shape="519.01,286.62 518.07,248.13">
      <param key="origId" value="1165_-2"/>
    </lane>
  </edge>
  <edge id=":1135_3" function="internal">
    <lane id=":1135_3_0" index="0" disallow="pedestrian tram rail_urban rail rail_electric rail_fast ship" speed="10.32" length="24.04" width="3.50" shape="522.51,286.53 521.46,279.71 518.70,274.87 514.23,272.00 508.04,271.12">
      <param key="origId" value="1156_-1"/>
    </lane>
  </edge>
  <edge id=":1135_4" function="internal">
    <lane id=":1135_4_0" index="0" disallow="pedestrian tram rail_urban rail rail_electric rail_fast ship" speed="13.89" length="38.50" width="3.50" shape="522.51,286.53 521.57,248.04">
      <param key="origId" value="1165_-1"/>
    </lane>
  </edge>
  <edge id=":1135_5" function="internal">
    <lane id=":1135_5_0" index="0" allow="pedestrian" speed="2.78" length="38.50" width="2.00" shape="537.95,247.65 538.89,286.13">
      <param key="origId" value="1166_6"/>
    </lane>
    <lane id=":1135_5_1" index="1" disallow="all" speed="1.39" length="38.50" width="0.63" shape="536.64,247.68 537.57,286.17">
      <param key="origId" value="1166_5"/>
    </lane>
    <lane id=":1135_5_2" index="2" disallow="all" speed="1.39" length="38.50" width="2.50" shape="535.07,247.72 536.01,286.20">
      <param key="origId" value="1166_4"/>
    </lane>
    <lane id=":1135_5_3" index="3" disallow="pedestrian tram rail_urban rail rail_electric rail_fast ship" speed="13.89" length="38.50" width="3.50" shape="532.07,247.79 533.01,286.28">
      <param key="origId" value="1166_3"/>
    </lane>
    <lane id=":1135_5_4" index="4" disallow="pedestrian tram rail_urban rail rail_electric rail_fast ship" speed="13.89" length="38.50" width="3.50" shape="528.57,247.87 529.51,286.36">
      <param key="origId" value="1166_2"/>
    </lane>
  </edge>
  <edge id=":1135_10" function="internal">
    <lane id=":1135_10_0" index="0" disallow="pedestrian tram rail_urban rail rail_electric rail_fast ship" speed="8.83" length="17.55" width="3.50" shape="507.87,259.62 512.44,258.84 515.66,256.67 517.54,253.10 518.07,248.13">
      <param key="origId" value="1142_1"/>
    </lane>
    <lane id=":1135_10_1" index="1" disallow="pedestrian tram rail_urban rail rail_electric rail_fast ship" speed="10.09" length="23.23" width="3.50" shape="507.92,263.12 514.03,262.10 518.34,259.25 520.86,254.56 521.57,248.04">
      <param key="origId" value="1146_1"/>
    </lane>
  </edge>
  <edge id=":1168_0" function="internal">
    <lane id=":1168_0_0" index="0" disallow="pedestrian tram rail_urban rail rail_electric rail_fast ship" speed="9.12" length="18.61" width="3.50" shape="435.44,285.99,0.20 434.57,281.50,0.16 432.12,278.32,0.13 428.11,276.46,0.10 422.53,275.90,0.06">
      <param key="origId" value="1188_-1"/>
    </lane>
  </edge>
  <edge id=":1168_1" function="internal">
    <lane id=":1168_1_0" index="0" disallow="pedestrian tram rail_urban rail rail_electric rail_fast ship" speed="1.39" length="29.00" width="3.50" shape="451.58,278.96,0.00 422.59,279.40,0.06">
      <param key="origId" value="1174_-3"/>
    </lane>
  </edge>
  <edge id=":1168_2" function="internal">
    <lane id=":1168_2_0" index="0" disallow="pedestrian tram rail_urban rail rail_electric rail_fast ship" speed="9.10" length="8.17" width="3.50" shape="451.53,275.46,0.00 445.96,276.19,0.06 443.68,277.33,0.09">
      <param key="origId" value="1181_-1"/>
    </lane>
  </edge>
  <edge id=":1168_3" function="internal">
    <lane id=":1168_3_0" index="0" disallow="pedestrian tram rail_urban rail rail_electric rail_fast ship" speed="13.89" length="29.00" width="3.50" shape="451.53,275.46,0.00 422.53,275.90,0.06">
      <param key="origId" value="1174_-2"/>
    </lane>
    <lane id=":1168_3_1" index="1" disallow="pedestrian tram rail_urban rail rail_electric rail_fast ship" speed="13.89" length="29.00" width="3.50" shape="451.48,271.96,0.00 422.48,272.40,0.06">
      <param key="origId" value="1174_-1"/>
    </lane>
  </edge>
  <edge id=":1168_13" function="internal">
    <lane id=":1168_13_0" index="0" disallow="pedestrian tram rail_urban rail rail_electric rail_fast ship" speed="9.10" length="10.45" width="3.50" shape="443.68,277.33,0.09 442.00,278.18,0.11 439.66,281.42,0.15 438.94,285.93,0.20">
      <param key="origId" value="1181_-1"/>
    </lane>
  </edge>
  <edge id=":1168_5" function="internal">