<?xml version='1.0' encoding='UTF-8'?>
<!-- generated on 2022-09-20 17:20:47 by Eclipse SUMO netconvert Version 1.10.0
<configuration xmlns:xsi="http://www.w3.org/2001/XMLSchema-instance" xsi:noNamespaceSchemaLocation="http://sumo.dlr.de/xsd/netconvertConfiguration.xsd">

    <input>
        <type-files value="/scratch/2020_CARLA_challenge/sumo_integration/util/data/opendrive_netconvert.typ.xml"/>
        <opendrive-files value="/home/laura/DrivingSimulators/CARLA_0.9.10/CarlaUE4/Content/Carla/Maps/OpenDrive/Town02.xodr"/>
    </input>

    <output>
        <output-file value="maps/Town02.net.xml"/>
        <output.original-names value="true"/>
    </output>

    <processing>
        <geometry.remove value="true"/>
        <geometry.min-radius.fix value="true"/>
        <geometry.max-grade.fix value="false"/>
    </processing>

    <tls_building>
        <tls.discard-loaded value="true"/>
        <tls.left-green.time value="0"/>
    </tls_building>

    <junctions>
        <rectangular-lane-cut value="true"/>
    </junctions>

    <formats>
        <opendrive.import-all-lanes value="true"/>
        <opendrive.curve-resolution value="0.25"/>
    </formats>

    <report>
        <aggregate-warnings value="5"/>
    </report>

</configuration>
-->
<net xmlns:xsi="http://www.w3.org/2001/XMLSchema-instance" version="1.9" junctionCornerDetail="5" rectangularLaneCut="true" limitTurnSpeed="5.50" xsi:noNamespaceSchemaLocation="http://sumo.dlr.de/xsd/net_file.xsd">
  <location netOffset="5.46,304.56" convBoundary="0.00,0.00,197.20,197.17" origBoundary="0.000000,0.000000,0.000000,0.000000" projParameter="+proj=tmerc +lat_0=0 +lon_0=0 +k=1 +x_0=0 +y_0=0 +datum=WGS84 +units=m +geoidgrids=egm96_15.gtx +vunits=m +no_defs "/>
  <type id="bidirectional" priority="1" speed="1.39" disallow="pedestrian tram rail_urban rail rail_electric rail_fast ship" width="3.65"/>
  <type id="biking" priority="-1" speed="5.56" allow="bicycle" width="1.50"/>
  <type id="border" priority="0" speed="1.39" disallow="all" discard="1" width="0.10"/>
  <type id="driving" priority="1" speed="13.89" disallow="pedestrian tram rail_urban rail rail_electric rail_fast ship" width="3.65"/>
  <type id="entry" priority="1" speed="22.22" disallow="pedestrian tram rail_urban rail rail_electric rail_fast ship" width="3.65"/>
  <type id="exit" priority="1" speed="22.22" disallow="pedestrian tram rail_urban rail rail_electric rail_fast ship" width="3.65"/>
  <type id="median" priority="0" speed="1.39" disallow="all" discard="1" width="0.10"/>
  <type id="mwyEntry" priority="1" speed="22.22" allow="private emergency authority army vip passenger hov taxi bus coach delivery truck trailer motorcycle evehicle custom1 custom2" width="3.65"/>
  <type id="mwyExit" priority="1" speed="22.22" allow="private emergency authority army vip passenger hov taxi bus coach delivery truck trailer motorcycle evehicle custom1 custom2" width="3.65"/>
  <type id="none" priority="0" speed="1.39" disallow="all" discard="1" width="1.00"/>
  <type id="offRamp" priority="1" speed="22.22" allow="private emergency authority army vip passenger hov taxi bus coach delivery truck trailer motorcycle evehicle custom1 custom2" width="3.65"/>
  <type id="onRamp" priority="1" speed="22.22" allow="private emergency authority army vip passenger hov taxi bus coach delivery truck trailer motorcycle evehicle custom1 custom2" width="3.65"/>
  <type id="parking" priority="1" speed="1.39" disallow="pedestrian tram rail_urban rail rail_electric rail_fast ship" width="2.50"/>
  <type id="rail" priority="3" speed="33.33" allow="rail_urban rail rail_electric rail_fast" width="3.65"/>
  <type id="restricted" priority="0" speed="13.89" disallow="all" width="3.65"/>
  <type id="roadWorks" priority="0" speed="1.39" allow="authority" width="3.65"/>
  <type id="shoulder" priority="0" speed="1.39" disallow="all" discard="1" width="1.00"/>
  <type id="sidewalk" priority="-2" speed="2.78" allow="pedestrian" width="2.50"/>
  <type id="special1" priority="1" speed="22.22" allow="custom1" discard="1" width="3.65"/>
  <type id="special2" priority="1" speed="22.22" allow="custom2" discard="1" width="3.65"/>
  <type id="special3" priority="1" speed="22.22" allow="custom1 custom2" discard="1" width="3.65"/>
  <type id="stop" priority="1" speed="13.89" disallow="pedestrian tram rail_urban rail rail_electric rail_fast ship" width="3.65"/>
  <type id="tram" priority="2" speed="13.89" allow="tram" width="3.65"/>
  <edge id=":132_0" function="internal">
    <lane id=":132_0_0" index="0" disallow="pedestrian tram rail_urban rail rail_electric rail_fast ship" speed="7.64" length="12.58" width="4.00" shape="137.58,75.44 137.09,72.03 135.62,69.59 133.19,68.13 129.77,67.64">
      <param key="origId" value="142_1"/>
      <param key="signalID" value="471"/>
    </lane>
  </edge>
  <edge id=":132_1" function="internal">
    <lane id=":132_1_0" index="0" disallow="pedestrian tram rail_urban rail rail_electric rail_fast ship" speed="9.24" length="19.04" width="4.00" shape="137.58,75.44 138.31,70.28 140.52,66.59 144.21,64.37 149.37,63.63">
      <param key="origId" value="148_1"/>
      <param key="signalID" value="471"/>
    </lane>
  </edge>
  <edge id=":132_2" function="internal">
    <lane id=":132_2_0" index="0" disallow="pedestrian tram rail_urban rail rail_electric rail_fast ship" speed="7.64" length="12.58" width="4.00" shape="149.37,67.63 145.96,68.12 143.52,69.58 142.06,72.02 141.58,75.44">
      <param key="origId" value="157_-1"/>
      <param key="signalID" value="464"/>
    </lane>
  </edge>
  <edge id=":132_3" function="internal">
    <lane id=":132_3_0" index="0" disallow="pedestrian tram rail_urban rail rail_electric rail_fast ship" speed="13.89" length="19.60" width="4.00" shape="149.37,67.63 129.77,67.64">
      <param key="origId" value="177_-1"/>
      <param key="signalID" value="464"/>
    </lane>
  </edge>
  <edge id=":132_4" function="internal">
    <lane id=":132_4_0" index="0" allow="pedestrian" speed="2.78" length="19.60" width="4.00" shape="129.77,59.34 149.37,59.33">
      <param key="origId" value="178_3"/>
      <param key="signalID" value="460"/>
    </lane>
    <lane id=":132_4_1" index="1" disallow="all" speed="1.39" length="19.60" width="0.30" shape="129.77,61.49 149.37,61.48">
      <param key="origId" value="178_2"/>
      <param key="signalID" value="460"/>
    </lane>
    <lane id=":132_4_2" index="2" disallow="pedestrian tram rail_urban rail rail_electric rail_fast ship" speed="13.89" length="19.60" width="4.00" shape="129.77,63.64 149.37,63.63">
      <param key="origId" value="178_1"/>
      <param key="signalID" value="462"/>
    </lane>
  </edge>
  <edge id=":132_7" function="internal">
    <lane id=":132_7_0" index="0" disallow="pedestrian tram rail_urban rail rail_electric rail_fast ship" speed="9.25" length="7.67" width="4.00" shape="129.77,63.64 134.93,64.38 137.04,65.64">
      <param key="origId" value="134_1"/>
      <param key="signalID" value="463"/>
    </lane>
  </edge>
  <edge id=":132_8" function="internal">
    <lane id=":132_8_0" index="0" disallow="pedestrian tram rail_urban rail rail_electric rail_fast ship" speed="9.25" length="11.36" width="4.00" shape="137.04,65.64 138.62,66.59 140.84,70.27 141.58,75.44">
      <param key="origId" value="134_1"/>
      <param key="signalID" value="463"/>
    </lane>
  </edge>
  <edge id=":188_0" function="internal">
    <lane id=":188_0_0" index="0" allow="pedestrian" speed="2.78" length="19.60" width="4.00" shape="59.12,121.28 39.52,121.29">
      <param key="origId" value="200_3"/>
      <param key="signalID" value="472"/>
    </lane>
    <lane id=":188_0_1" index="1" disallow="all" speed="1.39" length="19.60" width="0.30" shape="59.12,119.13 39.52,119.14">
      <param key="origId" value="200_2"/>
      <param key="signalID" value="472"/>
    </lane>
    <lane id=":188_0_2" index="2" disallow="pedestrian tram rail_urban rail rail_electric rail_fast ship" speed="13.89" length="19.60" width="4.00" shape="59.12,116.98 39.52,116.99">
      <param key="origId" value="200_1"/>
      <param key="signalID" value="472"/>
    </lane>
  </edge>
  <edge id=":188_3" function="internal">
    <lane id=":188_3_0" index="0" disallow="pedestrian tram rail_urban rail rail_electric rail_fast ship" speed="9.24" length="7.67" width="4.00" shape="59.12,116.98 53.95,116.25 51.85,114.99">
      <param key="origId" value="224_1"/>
      <param key="signalID" value="472"/>
    </lane>
  </edge>
  <edge id=":188_8" function="internal">
    <lane id=":188_8_0" index="0" disallow="pedestrian tram rail_urban rail rail_electric rail_fast ship" speed="9.24" length="11.37" width="4.00" shape="51.85,114.99 50.26,114.04 48.05,110.35 47.31,105.18">
      <param key="origId" value="224_1"/>
      <param key="signalID" value="472"/>
    </lane>
  </edge>
  <edge id=":188_4" function="internal">
    <lane id=":188_4_0" index="0" disallow="pedestrian tram rail_urban rail rail_electric rail_fast ship" speed="7.64" length="12.58" width="4.00" shape="51.31,105.18 51.80,108.60 53.26,111.04 55.70,112.50 59.11,112.98">
      <param key="origId" value="216_-1"/>
      <param key="signalID" value="461"/>
    </lane>
  </edge>
  <edge id=":188_5" function="internal">
    <lane id=":188_5_0" index="0" disallow="pedestrian tram rail_urban rail rail_electric rail_fast ship" speed="9.25" length="19.03" width="4.00" shape="51.31,105.18 50.57,110.35 48.36,114.04 44.68,116.25 39.52,116.99">
      <param key="origId" value="236_-1"/>
      <param key="signalID" value="461"/>
    </lane>
  </edge>
  <edge id=":188_6" function="internal">
    <lane id=":188_6_0" index="0" disallow="pedestrian tram rail_urban rail rail_electric rail_fast ship" speed="7.64" length="12.58" width="4.00" shape="39.51,112.99 42.92,112.50 45.36,111.04 46.82,108.60 47.31,105.18">
      <param key="origId" value="232_-1"/>
      <param key="signalID" value="477"/>
    </lane>
  </edge>
  <edge id=":188_7" function="internal">
    <lane id=":188_7_0" index="0" disallow="pedestrian tram rail_urban rail rail_electric rail_fast ship" speed="13.89" length="19.60" width="4.00" shape="39.51,112.99 59.11,112.98">
      <param key="origId" value="199_-1"/>
      <param key="signalID" value="477"/>
    </lane>
  </edge>
  <edge id=":2.0_0" function="internal">
    <lane id=":2.0_0_0" index="0" allow="pedestrian" speed="2.78" length="22.22" width="4.00" shape="-6.21,11.35 -5.33,3.62 -2.72,-1.89 1.63,-5.20 7.70,-6.30">
      <param key="signalID" value="479"/>
    </lane>
    <lane id=":2.0_0_1" index="1" disallow="all" speed="1.39" length="22.22" width="0.30" shape="-4.06,11.35 -3.30,4.57 -1.06,-0.28 2.68,-3.18 7.91,-4.15">
      <param key="signalID" value="479"/>
    </lane>
    <lane id=":2.0_0_2" index="2" disallow="pedestrian tram rail_urban rail rail_electric rail_fast ship" speed="9.22" length="22.22" width="4.00" shape="-1.91,11.36 -1.28,5.51 0.61,1.34 3.74,-1.17 8.12,-2.00">
      <param key="signalID" value="479"/>
    </lane>
  </edge>
  <edge id=":2.0_3" function="internal">
    <lane id=":2.0_3_0" index="0" allow="pedestrian" speed="2.78" length="9.33" width="4.00" shape="8.93,6.26 7.82,6.75 7.03,7.77 6.55,9.31 6.39,11.37"/>
    <lane id=":2.0_3_1" index="1" disallow="all" speed="1.39" length="9.33" width="0.30" shape="8.72,4.11 6.76,4.88 5.36,6.34 4.52,8.51 4.24,11.37"/>
    <lane id=":2.0_3_2" index="2" disallow="pedestrian tram rail_urban rail rail_electric rail_fast ship" speed="8.18" length="9.33" width="4.00" shape="8.52,1.96 5.71,3.01 3.70,4.92 2.49,7.71 2.09,11.36"/>
  </edge>
  <edge id=":2.18_0" function="internal">
    <lane id=":2.18_0_0" index="0" allow="pedestrian" speed="2.78" length="2.67" width="4.00" shape="11.58,6.30 10.85,6.26 10.34,6.18 9.84,6.15 9.12,6.23">
      <param key="signalID" value="474"/>
    </lane>
    <lane id=":2.18_0_1" index="1" disallow="all" speed="1.39" length="2.67" width="0.30" shape="11.58,4.15 10.79,4.10 10.24,4.02 9.70,3.98 8.92,4.07">
      <param key="signalID" value="474"/>
    </lane>
    <lane id=":2.18_0_2" index="2" disallow="pedestrian tram rail_urban rail rail_electric rail_fast ship" speed="13.89" length="2.67" width="4.00" shape="11.58,2.00 10.73,1.95 10.14,1.86 9.56,1.82 8.72,1.92">
      <param key="signalID" value="474"/>
    </lane>
  </edge>
  <edge id=":2.18_3" function="internal">
    <lane id=":2.18_3_0" index="0" allow="pedestrian" speed="2.78" length="3.47" width="4.00" shape="7.90,-6.30 11.58,-6.30"/>
    <lane id=":2.18_3_1" index="1" disallow="all" speed="1.39" length="3.47" width="0.30" shape="8.11,-4.15 11.58,-4.15"/>
    <lane id=":2.18_3_2" index="2" disallow="pedestrian tram rail_urban rail rail_electric rail_fast ship" speed="13.89" length="3.47" width="4.00" shape="8.32,-2.00 11.58,-2.00"/>
  </edge>
  <edge id=":20_0" function="internal">
    <lane id=":20_0_0" index="0" disallow="pedestrian tram rail_urban rail rail_electric rail_fast ship" speed="7.64" length="12.59" width="4.00" shape="195.15,75.41 194.67,71.99 193.20,69.55 190.77,68.09 187.35,67.61">
      <param key="origId" value="68_1"/>
      <param key="signalID" value="457"/>
    </lane>
  </edge>
  <edge id=":20_1" function="internal">
    <lane id=":20_1_0" index="0" disallow="pedestrian tram rail_urban rail rail_electric rail_fast ship" speed="13.89" length="19.60" width="4.00" shape="195.15,75.41 195.16,55.81">
      <param key="origId" value="31_1"/>
      <param key="signalID" value="458"/>
    </lane>
  </edge>
  <edge id=":20_2" function="internal">
    <lane id=":20_2_0" index="0" allow="pedestrian" speed="2.78" length="19.60" width="4.00" shape="203.46,55.81 203.45,75.41">
      <param key="origId" value="32_-3"/>
    </lane>
    <lane id=":20_2_1" index="1" disallow="all" speed="1.39" length="19.60" width="0.30" shape="201.31,55.81 201.30,75.41">
      <param key="origId" value="32_-2"/>
    </lane>
    <lane id=":20_2_2" index="2" disallow="pedestrian tram rail_urban rail rail_electric rail_fast ship" speed="13.89" length="19.60" width="4.00" shape="199.16,55.81 199.15,75.41">
      <param key="origId" value="32_-1"/>
      <param key="signalID" value="456"/>
    </lane>
  </edge>
  <edge id=":20_5" function="internal">
    <lane id=":20_5_0" index="0" disallow="pedestrian tram rail_urban rail rail_electric rail_fast ship" speed="9.25" length="7.66" width="4.00" shape="199.16,55.81 198.42,60.97 197.16,63.07">
      <param key="origId" value="47_-1"/>
      <param key="signalID" value="456"/>
    </lane>
  </edge>
  <edge id=":20_8" function="internal">
    <lane id=":20_8_0" index="0" disallow="pedestrian tram rail_urban rail rail_electric rail_fast ship" speed="9.25" length="11.37" width="4.00" shape="197.16,63.07 196.21,64.65 192.52,66.87 187.35,67.61">
      <param key="origId" value="47_-1"/>
      <param key="signalID" value="456"/>
    </lane>
  </edge>
  <edge id=":20_6" function="internal">
    <lane id=":20_6_0" index="0" disallow="pedestrian tram rail_urban rail rail_electric rail_fast ship" speed="7.64" length="12.59" width="4.00" shape="187.35,63.61 190.77,63.12 193.21,61.65 194.67,59.22 195.16,55.81">
      <param key="origId" value="55_1"/>
      <param key="signalID" value="457"/>
    </lane>
  </edge>
  <edge id=":20_7" function="internal">
    <lane id=":20_7_0" index="0" disallow="pedestrian tram rail_urban rail rail_electric rail_fast ship" speed="9.24" length="19.04" width="4.00" shape="187.35,63.61 192.52,64.34 196.20,66.55 198.42,70.24 199.15,75.41">
      <param key="origId" value="62_1"/>
      <param key="signalID" value="458"/>
    </lane>
  </edge>
  <edge id=":242_0" function="internal">
    <lane id=":242_0_0" index="0" disallow="pedestrian tram rail_urban rail rail_electric rail_fast ship" speed="7.64" length="12.58" width="4.00" shape="195.14,124.73 194.66,121.31 193.19,118.87 190.76,117.41 187.34,116.93">
      <param key="origId" value="245_1"/>
      <param key="signalID" value="470"/>
    </lane>
  </edge>
  <edge id=":242_1" function="internal">
    <lane id=":242_1_0" index="0" disallow="pedestrian tram rail_urban rail rail_electric rail_fast ship" speed="13.89" length="19.60" width="4.00" shape="195.14,124.73 195.15,105.13">
      <param key="origId" value="277_1"/>
      <param key="signalID" value="470"/>
    </lane>
  </edge>
  <edge id=":242_2" function="internal">
    <lane id=":242_2_0" index="0" allow="pedestrian" speed="2.78" length="19.60" width="4.00" shape="203.45,105.13 203.44,124.73">
      <param key="origId" value="276_-3"/>
      <param key="signalID" value="458"/>
    </lane>
    <lane id=":242_2_1" index="1" disallow="all" speed="1.39" length="19.60" width="0.30" shape="201.30,105.13 201.29,124.73">
      <param key="origId" value="276_-2"/>
      <param key="signalID" value="458"/>
    </lane>
    <lane id=":242_2_2" index="2" disallow="pedestrian tram rail_urban rail rail_electric rail_fast ship" speed="13.89" length="19.60" width="4.00" shape="199.15,105.13 199.14,124.73">
      <param key="origId" value="276_-1"/>
      <param key="signalID" value="468"/>
    </lane>
  </edge>
  <edge id=":242_5" function="internal">
    <lane id=":242_5_0" index="0" disallow="pedestrian tram rail_urban rail rail_electric rail_fast ship" speed="9.25" length="7.66" width="4.00" shape="199.15,105.13 198.41,110.29 197.15,112.39">
      <param key="origId" value="290_-1"/>
      <param key="signalID" value="468"/>
    </lane>
  </edge>
  <edge id=":242_8" function="internal">
    <lane id=":242_8_0" index="0" disallow="pedestrian tram rail_urban rail rail_electric rail_fast ship" speed="9.25" length="11.37" width="4.00" shape="197.15,112.39 196.20,113.97 192.51,116.19 187.34,116.93">
      <param key="origId" value="290_-1"/>
      <param key="signalID" value="468"/>
    </lane>
  </edge>
  <edge id=":242_6" function="internal">
    <lane id=":242_6_0" index="0" disallow="pedestrian tram rail_urban rail rail_electric rail_fast ship" speed="7.64" length="12.58" width="4.00" shape="187.34,112.93 190.76,112.44 193.20,110.97 194.66,108.54 195.15,105.13">
      <param key="origId" value="283_-1"/>
      <param key="signalID" value="473"/>
    </lane>
  </edge>
  <edge id=":242_7" function="internal">
    <lane id=":242_7_0" index="0" disallow="pedestrian tram rail_urban rail rail_electric rail_fast ship" speed="9.24" length="19.04" width="4.00" shape="187.34,112.93 192.50,113.66 196.19,115.87 198.41,119.56 199.14,124.73">
      <param key="origId" value="252_-1"/>
      <param key="signalID" value="473"/>
    </lane>
  </edge>
  <edge id=":298_0" function="internal">
    <lane id=":298_0_0" index="0" allow="pedestrian" speed="2.78" length="21.92" width="4.00" shape="150.56,121.24 128.64,121.25">
      <param key="origId" value="341_3"/>
      <param key="signalID" value="469"/>
    </lane>
    <lane id=":298_0_1" index="1" disallow="all" speed="1.39" length="21.92" width="0.30" shape="150.56,119.09 128.64,119.10">
      <param key="origId" value="341_2"/>
      <param key="signalID" value="469"/>
    </lane>
    <lane id=":298_0_2" index="2" disallow="pedestrian tram rail_urban rail rail_electric rail_fast ship" speed="13.89" length="21.92" width="4.00" shape="150.56,116.94 128.64,116.95">
      <param key="origId" value="341_1"/>
      <param key="signalID" value="469"/>
    </lane>
  </edge>
  <edge id=":298_3" function="internal">
    <lane id=":298_3_0" index="0" disallow="pedestrian tram rail_urban rail rail_electric rail_fast ship" speed="9.46" length="8.34" width="4.00" shape="150.56,116.94 144.90,116.21 142.59,114.95">
      <param key="origId" value="317_1"/>
      <param key="signalID" value="469"/>
    </lane>
  </edge>
  <edge id=":298_8" function="internal">
    <lane id=":298_8_0" index="0" disallow="pedestrian tram rail_urban rail rail_electric rail_fast ship" speed="9.46" length="11.62" width="4.00" shape="142.59,114.95 140.85,114.00 138.42,110.31 137.61,105.14">
      <param key="origId" value="317_1"/>
      <param key="signalID" value="469"/>
    </lane>
  </edge>
  <edge id=":298_4" function="internal">
    <lane id=":298_4_0" index="0" disallow="pedestrian tram rail_urban rail rail_electric rail_fast ship" speed="7.89" length="13.52" width="4.00" shape="141.61,105.14 142.17,108.56 143.85,110.99 146.65,112.46 150.56,112.94">
      <param key="origId" value="322_-1"/>
      <param key="signalID" value="463"/>
    </lane>
  </edge>
  <edge id=":298_5" function="internal">
    <lane id=":298_5_0" index="0" disallow="pedestrian tram rail_urban rail rail_electric rail_fast ship" speed="9.46" length="19.99" width="4.00" shape="141.61,105.14 140.80,110.31 138.37,114.00 134.32,116.21 128.64,116.95">
      <param key="origId" value="308_-1"/>
      <param key="signalID" value="463"/>
    </lane>
  </edge>
  <edge id=":298_6" function="internal">
    <lane id=":298_6_0" index="0" disallow="pedestrian tram rail_urban rail rail_electric rail_fast ship" speed="7.90" length="13.54" width="4.00" shape="128.64,112.95 132.57,112.46 135.37,111.00 137.05,108.56 137.61,105.14">
      <param key="origId" value="301_-1"/>
      <param key="signalID" value="467"/>
    </lane>
  </edge>
  <edge id=":298_7" function="internal">
    <lane id=":298_7_0" index="0" disallow="pedestrian tram rail_urban rail rail_electric rail_fast ship" speed="13.89" length="21.92" width="4.00" shape="128.64,112.95 150.56,112.94">
      <param key="origId" value="342_-1"/>
      <param key="signalID" value="467"/>
    </lane>
  </edge>
  <edge id=":349_0" function="internal">
    <lane id=":349_0_0" index="0" disallow="pedestrian tram rail_urban rail rail_electric rail_fast ship" speed="7.64" length="12.58" width="4.00" shape="47.32,9.83 46.83,6.41 45.37,3.98 42.93,2.51 39.52,2.02">
      <param key="origId" value="385_1"/>
      <param key="signalID" value="459"/>
    </lane>
  </edge>
  <edge id=":349_1" function="internal">
    <lane id=":349_1_0" index="0" disallow="pedestrian tram rail_urban rail rail_electric rail_fast ship" speed="9.24" length="19.03" width="4.00" shape="47.32,9.83 48.06,4.67 50.27,0.98 53.95,-1.23 59.12,-1.97">
      <param key="origId" value="351_1"/>
      <param key="signalID" value="459"/>
    </lane>
  </edge>
  <edge id=":349_2" function="internal">
    <lane id=":349_2_0" index="0" disallow="pedestrian tram rail_urban rail rail_electric rail_fast ship" speed="7.64" length="12.58" width="4.00" shape="59.12,2.03 55.71,2.52 53.27,3.98 51.81,6.42 51.32,9.83">
      <param key="origId" value="358_1"/>
      <param key="signalID" value="475"/>
    </lane>
  </edge>
  <edge id=":349_3" function="internal">
    <lane id=":349_3_0" index="0" disallow="pedestrian tram rail_urban rail rail_electric rail_fast ship" speed="13.89" length="19.59" width="4.00" shape="59.12,2.03 39.52,2.02">
      <param key="origId" value="384_1"/>
      <param key="signalID" value="476"/>
    </lane>
  </edge>
  <edge id=":349_4" function="internal">
    <lane id=":349_4_0" index="0" allow="pedestrian" speed="2.78" length="19.59" width="4.00" shape="39.53,-6.28 59.11,-6.27">
      <param key="origId" value="383_-3"/>
    </lane>
    <lane id=":349_4_1" index="1" disallow="all" speed="1.39" length="19.59" width="0.30" shape="39.53,-4.13 59.11,-4.12">
      <param key="origId" value="383_-2"/>
    </lane>
    <lane id=":349_4_2" index="2" disallow="pedestrian tram rail_urban rail rail_electric rail_fast ship" speed="13.89" length="19.59" width="4.00" shape="39.53,-1.98 59.12,-1.97">
      <param key="origId" value="383_-1"/>
      <param key="signalID" value="474"/>
    </lane>
  </edge>
  <edge id=":349_7" function="internal">
    <lane id=":349_7_0" index="0" disallow="pedestrian tram rail_urban rail rail_electric rail_fast ship" speed="9.25" length="7.66" width="4.00" shape="39.53,-1.98 44.69,-1.24 46.79,0.02">
      <param key="origId" value="390_-1"/>
      <param key="signalID" value="474"/>
    </lane>
  </edge>
  <edge id=":349_8" function="internal">
    <lane id=":349_8_0" index="0" disallow="pedestrian tram rail_urban rail rail_electric rail_fast ship" speed="9.25" length="11.37" width="4.00" shape="46.79,0.02 48.37,0.98 50.58,4.67 51.32,9.83">
      <param key="origId" value="390_-1"/>
      <param key="signalID" value="474"/>
    </lane>
  </edge>
  <edge id=":400_0" function="internal">
    <lane id=":400_0_0" index="0" allow="pedestrian" speed="2.78" length="19.60" width="4.00" shape="-6.30,124.80 -6.29,105.20">
      <param key="origId" value="411_3"/>
    </lane>
    <lane id=":400_0_1" index="1" disallow="all" speed="1.39" length="19.60" width="0.30" shape="-4.15,124.80 -4.14,105.20">
      <param key="origId" value="411_2"/>
    </lane>
    <lane id=":400_0_2" index="2" disallow="pedestrian tram rail_urban rail rail_electric rail_fast ship" speed="13.89" length="19.60" width="4.00" shape="-2.00,124.80 -1.99,105.20">
      <param key="origId" value="411_1"/>
      <param key="signalID" value="478"/>
    </lane>
  </edge>
  <edge id=":400_3" function="internal">
    <lane id=":400_3_0" index="0" disallow="pedestrian tram rail_urban rail rail_electric rail_fast ship" speed="9.25" length="7.66" width="4.00" shape="-2.00,124.80 -1.26,119.65 0.01,117.54">
      <param key="origId" value="437_1"/>
      <param key="signalID" value="477"/>
    </lane>
  </edge>
  <edge id=":400_8" function="internal">
    <lane id=":400_8_0" index="0" disallow="pedestrian tram rail_urban rail rail_electric rail_fast ship" speed="9.25" length="11.37" width="4.00" shape="0.01,117.54 0.96,115.96 4.65,113.75 9.81,113.01">
      <param key="origId" value="437_1"/>
      <param key="signalID" value="477"/>
    </lane>
  </edge>
  <edge id=":400_4" function="internal">
    <lane id=":400_4_0" index="0" disallow="pedestrian tram rail_urban rail rail_electric rail_fast ship" speed="7.64" length="12.58" width="4.00" shape="9.81,117.01 6.40,117.50 3.96,118.96 2.49,121.39 2.00,124.81">
      <param key="origId" value="447_1"/>
      <param key="signalID" value="478"/>
    </lane>
  </edge>
  <edge id=":400_5" function="internal">
    <lane id=":400_5_0" index="0" disallow="pedestrian tram rail_urban rail rail_electric rail_fast ship" speed="9.24" length="19.04" width="4.00" shape="9.81,117.01 4.65,116.27 0.96,114.06 -1.25,110.37 -1.99,105.20">
      <param key="origId" value="433_1"/>
      <param key="signalID" value="477"/>
    </lane>
  </edge>
  <edge id=":400_6" function="internal">
    <lane id=":400_6_0" index="0" disallow="pedestrian tram rail_urban rail rail_electric rail_fast ship" speed="7.64" length="12.58" width="4.00" shape="2.01,105.21 2.50,108.62 3.96,111.06 6.40,112.52 9.81,113.01">
      <param key="origId" value="426_-1"/>
      <param key="signalID" value="479"/>
    </lane>
  </edge>
  <edge id=":400_7" function="internal">
    <lane id=":400_7_0" index="0" disallow="pedestrian tram rail_urban rail rail_electric rail_fast ship" speed="13.89" length="19.60" width="4.00" shape="2.01,105.21 2.00,124.81">
      <param key="origId" value="412_-1"/>
      <param key="signalID" value="479"/>
    </lane>
  </edge>
  <edge id=":76_0" function="internal">
    <lane id=":76_0_0" index="0" allow="pedestrian" speed="2.78" length="21.09" width="4.00" shape="43.01,76.97 43.02,55.88">
      <param key="origId" value="92_3"/>
      <param key="signalID" value="466"/>
    </lane>
    <lane id=":76_0_1" index="1" disallow="all" speed="1.39" length="21.09" width="0.30" shape="45.16,76.97 45.17,55.88">
      <param key="origId" value="92_2"/>
      <param key="signalID" value="466"/>
    </lane>
    <lane id=":76_0_2" index="2" disallow="pedestrian tram rail_urban rail rail_electric rail_fast ship" speed="13.89" length="21.09" width="4.00" shape="47.31,76.97 47.32,55.88">
      <param key="origId" value="92_1"/>
      <param key="signalID" value="461"/>
    </lane>
  </edge>
  <edge id=":76_3" function="internal">
    <lane id=":76_3_0" index="0" disallow="pedestrian tram rail_urban rail rail_electric rail_fast ship" speed="9.70" length="8.25" width="4.00" shape="47.31,76.97 48.12,71.16 49.31,69.10">
      <param key="origId" value="131_1"/>
      <param key="signalID" value="466"/>
    </lane>
  </edge>
  <edge id=":76_8" function="internal">
    <lane id=":76_8_0" index="0" disallow="pedestrian tram rail_urban rail rail_electric rail_fast ship" speed="9.70" length="12.84" width="4.00" shape="49.31,69.10 50.53,67.01 54.55,64.52 60.18,63.68">
      <param key="origId" value="131_1"/>
      <param key="signalID" value="466"/>
    </lane>
  </edge>
  <edge id=":76_4" function="internal">
    <lane id=":76_4_0" index="0" disallow="pedestrian tram rail_urban rail rail_electric rail_fast ship" speed="8.19" length="14.64" width="4.00" shape="60.18,67.68 56.30,68.27 53.53,70.01 51.87,72.91 51.31,76.97">
      <param key="origId" value="118_-1"/>
      <param key="signalID" value="460"/>
    </lane>
  </edge>
  <edge id=":76_5" function="internal">
    <lane id=":76_5_0" index="0" disallow="pedestrian tram rail_urban rail rail_electric rail_fast ship" speed="9.44" length="19.90" width="4.00" shape="60.18,67.68 54.55,66.95 50.53,64.74 48.12,61.05 47.32,55.88">
      <param key="origId" value="99_-1"/>
      <param key="signalID" value="460"/>
    </lane>
  </edge>
  <edge id=":76_6" function="internal">
    <lane id=":76_6_0" index="0" disallow="pedestrian tram rail_urban rail rail_electric rail_fast ship" speed="7.87" length="13.45" width="4.00" shape="51.32,55.88 51.87,59.30 53.53,61.74 56.30,63.20 60.18,63.68">
      <param key="origId" value="107_-1"/>
      <param key="signalID" value="475"/>
    </lane>
  </edge>
  <edge id=":76_7" function="internal">
    <lane id=":76_7_0" index="0" disallow="pedestrian tram rail_urban rail rail_electric rail_fast ship" speed="13.89" length="21.09" width="4.00" shape="51.32,55.88 51.31,76.97">
      <param key="origId" value="93_-1"/>
      <param key="signalID" value="459"/>
    </lane>
  </edge>