<?xml version='1.0' encoding='UTF-8'?>
<!-- generated on 2022-09-02 15:28:28 by Eclipse SUMO netconvert Version 1.10.0
<configuration xmlns:xsi="http://www.w3.org/2001/XMLSchema-instance" xsi:noNamespaceSchemaLocation="http://sumo.dlr.de/xsd/netconvertConfiguration.xsd">

    <input>
        <type-files value="/scratch/transfuser/sumo_integration/util/data/opendrive_netconvert.typ.xml"/>
        <opendrive-files value="/home/laura/DrivingSimulators/CARLA_0.9.10/CarlaUE4/Content/Carla/Maps/OpenDrive/Town07.xodr"/>
    </input>

    <output>
        <output-file value="maps/Town07.net.xml"/>
        <output.original-names value="true"/>
    </output>

    <processing>
        <geometry.remove value="true"/>
        <geometry.min-radius.fix value="true"/>
        <geometry.max-grade.fix value="false"/>
    </processing>

    <tls_building>
        <tls.discard-loaded value="true"/>
        <tls.left-green.time value="0"/>
    </tls_building>

    <junctions>
        <rectangular-lane-cut value="true"/>
    </junctions>

    <formats>
        <opendrive.import-all-lanes value="true"/>
        <opendrive.curve-resolution value="0.25"/>
    </formats>

    <report>
        <aggregate-warnings value="5"/>
    </report>

</configuration>
-->
<net xmlns:xsi="http://www.w3.org/2001/XMLSchema-instance" version="1.9" junctionCornerDetail="5" rectangularLaneCut="true" limitTurnSpeed="5.50" xsi:noNamespaceSchemaLocation="http://sumo.dlr.de/xsd/net_file.xsd">
  <location netOffset="203.03,122.66" convBoundary="0.00,0.00,287.15,370.06" origBoundary="0.000000,0.000000,0.000000,0.000000" projParameter="+proj=tmerc +lat_0=0 +lon_0=0 +k=1 +x_0=0 +y_0=0 +datum=WGS84 +units=m +geoidgrids=egm96_15.gtx +vunits=m +no_defs "/>
  <type id="bidirectional" priority="1" speed="1.39" disallow="pedestrian tram rail_urban rail rail_electric rail_fast ship" width="3.65"/>
  <type id="biking" priority="-1" speed="5.56" allow="bicycle" width="1.50"/>
  <type id="border" priority="0" speed="1.39" disallow="all" discard="1" width="0.10"/>
  <type id="driving" priority="1" speed="13.89" disallow="pedestrian tram rail_urban rail rail_electric rail_fast ship" width="3.65"/>
  <type id="entry" priority="1" speed="22.22" disallow="pedestrian tram rail_urban rail rail_electric rail_fast ship" width="3.65"/>
  <type id="exit" priority="1" speed="22.22" disallow="pedestrian tram rail_urban rail rail_electric rail_fast ship" width="3.65"/>
  <type id="median" priority="0" speed="1.39" disallow="all" discard="1" width="0.10"/>
  <type id="mwyEntry" priority="1" speed="22.22" allow="private emergency authority army vip passenger hov taxi bus coach delivery truck trailer motorcycle evehicle custom1 custom2" width="3.65"/>
  <type id="mwyExit" priority="1" speed="22.22" allow="private emergency authority army vip passenger hov taxi bus coach delivery truck trailer motorcycle evehicle custom1 custom2" width="3.65"/>
  <type id="none" priority="0" speed="1.39" disallow="all" discard="1" width="1.00"/>
  <type id="offRamp" priority="1" speed="22.22" allow="private emergency authority army vip passenger hov taxi bus coach delivery truck trailer motorcycle evehicle custom1 custom2" width="3.65"/>
  <type id="onRamp" priority="1" speed="22.22" allow="private emergency authority army vip passenger hov taxi bus coach delivery truck trailer motorcycle evehicle custom1 custom2" width="3.65"/>
  <type id="parking" priority="1" speed="1.39" disallow="pedestrian tram rail_urban rail rail_electric rail_fast ship" width="2.50"/>
  <type id="rail" priority="3" speed="33.33" allow="rail_urban rail rail_electric rail_fast" width="3.65"/>
  <type id="restricted" priority="0" speed="13.89" disallow="all" width="3.65"/>
  <type id="roadWorks" priority="0" speed="1.39" allow="authority" width="3.65"/>
  <type id="shoulder" priority="0" speed="1.39" disallow="all" discard="1" width="1.00"/>
  <type id="sidewalk" priority="-2" speed="2.78" allow="pedestrian" width="2.50"/>
  <type id="special1" priority="1" speed="22.22" allow="custom1" discard="1" width="3.65"/>
  <type id="special2" priority="1" speed="22.22" allow="custom2" discard="1" width="3.65"/>
  <type id="special3" priority="1" speed="22.22" allow="custom1 custom2" discard="1" width="3.65"/>
  <type id="stop" priority="1" speed="13.89" disallow="pedestrian tram rail_urban rail rail_electric rail_fast ship" width="3.65"/>
  <type id="tram" priority="2" speed="13.89" allow="tram" width="3.65"/>
  <edge id=":123_0" function="internal">
    <lane id=":123_0_0" index="0" disallow="pedestrian tram rail_urban rail rail_electric rail_fast ship" speed="6.46" length="8.91" width="3.10" shape="50.24,79.34,0.00 49.86,76.94,0.00 48.80,75.24,0.00 47.06,74.22,0.00 44.63,73.90">
      <param key="origId" value="145_-1"/>
    </lane>
  </edge>
  <edge id=":123_1" function="internal">
    <lane id=":123_1_0" index="0" disallow="pedestrian tram rail_urban rail rail_electric rail_fast ship" speed="7.91" length="13.90" width="3.10" shape="50.24,79.34,0.00 50.73,75.58,0.00 52.33,72.88,0.00 55.02,71.25,0.00 58.80,70.68">
      <param key="origId" value="135_-1"/>
    </lane>
  </edge>
  <edge id=":123_2" function="internal">
    <lane id=":123_2_0" index="0" disallow="all" speed="1.39" length="14.20" width="0.50" shape="58.84,75.58 44.64,75.70">
      <param key="origId" value="128_-2"/>
    </lane>
  </edge>
  <edge id=":123_3" function="internal">
    <lane id=":123_3_0" index="0" disallow="pedestrian tram rail_urban rail rail_electric rail_fast ship" speed="6.44" length="4.68" width="3.10" shape="58.83,73.78 56.40,74.14,0.00 54.68,75.18,0.00 54.57,75.36,0.00">
      <param key="origId" value="139_-1"/>
    </lane>
  </edge>
  <edge id=":123_4" function="internal">
    <lane id=":123_4_0" index="0" disallow="pedestrian tram rail_urban rail rail_electric rail_fast ship" speed="13.89" length="14.20" width="3.10" shape="58.83,73.78 44.63,73.90">
      <param key="origId" value="128_-1"/>
    </lane>
  </edge>
  <edge id=":123_8" function="internal">
    <lane id=":123_8_0" index="0" disallow="pedestrian tram rail_urban rail rail_electric rail_fast ship" speed="6.44" length="4.21" width="3.10" shape="54.57,75.36,0.00 53.66,76.91,0.00 53.34,79.31,0.00">
      <param key="origId" value="139_-1"/>
    </lane>
  </edge>
  <edge id=":123_5" function="internal">
    <lane id=":123_5_0" index="0" disallow="all" speed="1.39" length="14.20" width="0.50" shape="44.58,69.00 58.78,68.88">
      <param key="origId" value="127_2"/>
    </lane>
    <lane id=":123_5_1" index="1" disallow="pedestrian tram rail_urban rail rail_electric rail_fast ship" speed="13.89" length="14.20" width="3.10" shape="44.60,70.80 58.80,70.68">
      <param key="origId" value="127_1"/>
    </lane>
  </edge>
  <edge id=":123_7" function="internal">
    <lane id=":123_7_0" index="0" disallow="pedestrian tram rail_urban rail rail_electric rail_fast ship" speed="7.92" length="5.80" width="3.10" shape="44.60,70.80 48.38,71.30,0.00 50.10,72.30,0.00">
      <param key="origId" value="141_1"/>
    </lane>
  </edge>
  <edge id=":123_9" function="internal">
    <lane id=":123_9_0" index="0" disallow="pedestrian tram rail_urban rail rail_electric rail_fast ship" speed="7.92" length="8.10" width="3.10" shape="50.10,72.30,0.00 51.10,72.89,0.00 52.75,75.56,0.00 53.34,79.31,0.00">
      <param key="origId" value="141_1"/>
    </lane>
  </edge>
  <edge id=":146_0" function="internal">
    <lane id=":146_0_0" index="0" disallow="pedestrian tram rail_urban rail rail_electric rail_fast ship" speed="7.37" length="11.40" width="3.20" shape="10.83,74.19 7.66,74.64 5.35,75.92 3.90,78.03 3.31,80.97">
      <param key="origId" value="151_-1"/>
    </lane>
  </edge>
  <edge id=":146_1" function="internal">
    <lane id=":146_1_0" index="0" disallow="pedestrian tram rail_urban rail rail_electric rail_fast ship" speed="8.58" length="16.51" width="3.20" shape="10.83,74.19 6.32,73.60 3.08,71.72 1.12,68.56 0.44,64.11">
      <param key="origId" value="153_-1"/>
    </lane>
  </edge>
  <edge id=":146_2" function="internal">
    <lane id=":146_2_0" index="0" disallow="all" speed="1.39" length="16.99" width="0.50" shape="5.49,64.07 5.16,81.06">
      <param key="origId" value="167_2"/>
    </lane>
  </edge>
  <edge id=":146_3" function="internal">
    <lane id=":146_3_0" index="0" disallow="pedestrian tram rail_urban rail rail_electric rail_fast ship" speed="7.24" length="5.10" width="3.10" shape="3.64,64.09 4.11,67.17 5.15,68.86">
      <param key="origId" value="157_1"/>
    </lane>
  </edge>
  <edge id=":146_4" function="internal">
    <lane id=":146_4_0" index="0" disallow="pedestrian tram rail_urban rail rail_electric rail_fast ship" speed="13.89" length="16.89" width="3.20" shape="3.64,64.09 3.31,80.97">
      <param key="origId" value="167_1"/>
    </lane>
  </edge>
  <edge id=":146_8" function="internal">
    <lane id=":146_8_0" index="0" disallow="pedestrian tram rail_urban rail rail_electric rail_fast ship" speed="7.24" length="6.32" width="3.10" shape="5.15,68.86 5.46,69.37 7.69,70.68 10.80,71.09">
      <param key="origId" value="157_1"/>
    </lane>
  </edge>
  <edge id=":146_5" function="internal">
    <lane id=":146_5_0" index="0" disallow="all" speed="1.39" length="16.65" width="0.50" shape="-1.73,80.73 -1.41,64.13">
      <param key="origId" value="168_-2"/>
    </lane>
    <lane id=":146_5_1" index="1" disallow="pedestrian tram rail_urban rail rail_electric rail_fast ship" speed="13.89" length="16.65" width="3.20" shape="0.12,80.81 0.44,64.11">
      <param key="origId" value="168_-1"/>
    </lane>
  </edge>
  <edge id=":146_7" function="internal">
    <lane id=":146_7_0" index="0" disallow="pedestrian tram rail_urban rail rail_electric rail_fast ship" speed="8.71" length="5.84" width="3.10" shape="0.12,80.81 0.96,76.60 1.82,75.32">
      <param key="origId" value="147_-1"/>
    </lane>
  </edge>
  <edge id=":146_9" function="internal">
    <lane id=":146_9_0" index="0" disallow="pedestrian tram rail_urban rail rail_electric rail_fast ship" speed="8.71" length="10.43" width="3.10" shape="1.82,75.32 3.02,73.57 6.30,71.73 10.80,71.09">
      <param key="origId" value="147_-1"/>
    </lane>
  </edge>
  <edge id=":169_0" function="internal">
    <lane id=":169_0_0" index="0" disallow="all" speed="1.39" length="16.80" width="0.50" shape="49.47,166.03,0.23 49.27,149.23,0.27">
      <param key="origId" value="189_-2"/>
    </lane>
  </edge>
  <edge id=":169_1" function="internal">
    <lane id=":169_1_0" index="0" disallow="pedestrian tram rail_urban rail rail_electric rail_fast ship" speed="7.15" length="5.12" width="3.10" shape="51.27,166.01,0.23 50.80,163.04,0.23 49.67,161.25,0.23">
      <param key="origId" value="210_-1"/>
    </lane>
  </edge>
  <edge id=":169_2" function="internal">
    <lane id=":169_2_0" index="0" disallow="pedestrian tram rail_urban rail rail_electric rail_fast ship" speed="13.89" length="16.80" width="3.10" shape="51.27,166.01,0.23 51.07,149.21,0.27">
      <param key="origId" value="189_-1"/>
    </lane>
  </edge>
  <edge id=":169_3" function="internal">
    <lane id=":169_3_0" index="0" disallow="pedestrian tram rail_urban rail rail_electric rail_fast ship" speed="8.53" length="6.05" width="3.10" shape="51.27,166.01,0.23 51.87,161.68,0.20 52.76,160.25,0.18">
      <param key="origId" value="199_-1"/>
    </lane>
  </edge>
  <edge id=":169_16" function="internal">
    <lane id=":169_16_0" index="0" disallow="pedestrian tram rail_urban rail rail_electric rail_fast ship" speed="7.15" length="6.01" width="3.10" shape="49.67,161.25,0.23 49.46,160.93,0.23 47.26,159.68,0.23 44.20,159.28,0.23">
      <param key="origId" value="210_-1"/>
    </lane>
  </edge>
  <edge id=":169_17" function="internal">
    <lane id=":169_17_0" index="0" disallow="pedestrian tram rail_urban rail rail_electric rail_fast ship" speed="8.53" length="10.29" width="3.10" shape="52.76,160.25,0.18 53.79,158.57,0.17 57.02,156.70,0.14 61.56,156.04,0.11">
      <param key="origId" value="199_-1"/>
    </lane>
  </edge>
  <edge id=":169_4" function="internal">
    <lane id=":169_4_0" index="0" disallow="all" speed="1.39" length="17.39" width="0.50" shape="61.60,160.94,0.11 44.21,161.08,0.23">
      <param key="origId" value="250_2"/>
    </lane>
  </edge>
  <edge id=":169_5" function="internal">
    <lane id=":169_5_0" index="0" disallow="pedestrian tram rail_urban rail rail_electric rail_fast ship" speed="7.19" length="11.33" width="3.10" shape="61.59,159.14,0.11 58.40,159.59,0.14 56.14,160.88,0.17 54.79,163.00,0.20 54.37,165.97,0.23">
      <param key="origId" value="203_1"/>
    </lane>
  </edge>
  <edge id=":169_6" function="internal">
    <lane id=":169_6_0" index="0" disallow="pedestrian tram rail_urban rail rail_electric rail_fast ship" speed="13.89" length="17.39" width="3.10" shape="61.59,159.14,0.11 44.20,159.28,0.23">
      <param key="origId" value="250_1"/>
    </lane>
  </edge>
  <edge id=":169_7" function="internal">
    <lane id=":169_7_0" index="0" disallow="pedestrian tram rail_urban rail rail_electric rail_fast ship" speed="8.59" length="16.48" width="3.10" shape="61.59,159.14,0.11 57.03,158.55,0.15 53.76,156.70,0.19 51.78,153.59,0.23 51.07,149.21,0.27">
      <param key="origId" value="218_1"/>
    </lane>
  </edge>
  <edge id=":169_8" function="internal">
    <lane id=":169_8_0" index="0" disallow="all" speed="1.39" length="16.80" width="0.50" shape="55.97,149.15,0.27 56.17,165.95,0.23">
      <param key="origId" value="188_2"/>
    </lane>
  </edge>
  <edge id=":169_9" function="internal">
    <lane id=":169_9_0" index="0" disallow="pedestrian tram rail_urban rail rail_electric rail_fast ship" speed="7.26" length="5.12" width="3.10" shape="54.17,149.17,0.27 54.67,152.20,0.23 55.78,153.92,0.20">
      <param key="origId" value="217_1"/>
    </lane>
  </edge>
  <edge id=":169_10" function="internal">
    <lane id=":169_10_0" index="0" disallow="pedestrian tram rail_urban rail rail_electric rail_fast ship" speed="13.89" length="16.80" width="3.10" shape="54.17,149.17,0.27 54.37,165.97,0.23">
      <param key="origId" value="188_1"/>
    </lane>
  </edge>
  <edge id=":169_11" function="internal">
    <lane id=":169_11_0" index="0" disallow="pedestrian tram rail_urban rail rail_electric rail_fast ship" speed="8.49" length="6.20" width="3.10" shape="54.17,149.17,0.27 53.60,153.56,0.26 52.69,155.09,0.25">
      <param key="origId" value="226_1"/>
    </lane>
  </edge>
  <edge id=":169_18" function="internal">
    <lane id=":169_18_0" index="0" disallow="pedestrian tram rail_urban rail rail_electric rail_fast ship" speed="7.26" length="6.38" width="3.10" shape="55.78,153.92,0.20 56.06,154.35,0.19 58.36,155.64,0.15 61.56,156.04,0.11">
      <param key="origId" value="217_1"/>
    </lane>
  </edge>
  <edge id=":169_19" function="internal">
    <lane id=":169_19_0" index="0" disallow="pedestrian tram rail_urban rail rail_electric rail_fast ship" speed="8.49" length="10.01" width="3.10" shape="52.69,155.09,0.25 51.74,156.71,0.25 48.61,158.62,0.24 44.20,159.28,0.23">
      <param key="origId" value="226_1"/>
    </lane>
  </edge>
  <edge id=":169_12" function="internal">
    <lane id=":169_12_0" index="0" disallow="all" speed="1.39" length="17.39" width="0.50" shape="44.16,154.38,0.23 61.55,154.24,0.11">
      <param key="origId" value="249_-2"/>
    </lane>
  </edge>
  <edge id=":169_13" function="internal">
    <lane id=":169_13_0" index="0" disallow="pedestrian tram rail_urban rail rail_electric rail_fast ship" speed="7.15" length="11.20" width="3.10" shape="44.17,156.18,0.23 47.22,155.72,0.24 49.39,154.41,0.25 50.67,152.24,0.26 51.07,149.21,0.27">
      <param key="origId" value="224_-1"/>
    </lane>
  </edge>
  <edge id=":169_14" function="internal">
    <lane id=":169_14_0" index="0" disallow="pedestrian tram rail_urban rail rail_electric rail_fast ship" speed="13.89" length="17.39" width="3.10" shape="44.17,156.18,0.23 61.56,156.04,0.11">
      <param key="origId" value="249_-1"/>
    </lane>
  </edge>
  <edge id=":169_15" function="internal">
    <lane id=":169_15_0" index="0" disallow="pedestrian tram rail_urban rail rail_electric rail_fast ship" speed="8.50" length="16.11" width="3.10" shape="44.17,156.18,0.23 48.59,156.76,0.23 51.77,158.59,0.23 53.69,161.66,0.23 54.37,165.97,0.23">
      <param key="origId" value="206_-1"/>
    </lane>
  </edge>
  <edge id=":17.16_0" function="internal">
    <lane id=":17.16_0_0" index="0" allow="pedestrian" speed="2.78" length="5.27" width="2.00" shape="188.61,192.64 185.56,197.83"/>
    <lane id=":17.16_0_1" index="1" disallow="all" speed="1.39" length="5.27" width="0.63" shape="188.62,191.32 185.57,196.52"/>
    <lane id=":17.16_0_2" index="2" disallow="all" speed="1.39" length="5.27" width="0.50" shape="188.62,190.75 185.57,195.95"/>
    <lane id=":17.16_0_3" index="3" disallow="pedestrian tram rail_urban rail rail_electric rail_fast ship" speed="13.89" length="5.27" width="3.50" shape="188.64,188.75 185.64,188.73"/>
  </edge>
  <edge id=":17.16_4" function="internal">
    <lane id=":17.16_4_0" index="0" allow="pedestrian" speed="2.78" length="3.00" width="2.00" shape="185.71,181.34 188.71,181.37"/>
    <lane id=":17.16_4_1" index="1" disallow="all" speed="1.39" length="3.00" width="0.63" shape="185.70,182.66 188.70,182.69"/>
    <lane id=":17.16_4_2" index="2" disallow="all" speed="1.39" length="3.00" width="0.50" shape="185.69,183.23 188.69,183.25"/>
    <lane id=":17.16_4_3" index="3" disallow="pedestrian tram rail_urban rail rail_electric rail_fast ship" speed="13.89" length="3.00" width="3.50" shape="185.67,185.23 188.67,185.25"/>
  </edge>
  <edge id=":18.17_0" function="internal">
    <lane id=":18.17_0_0" index="0" allow="pedestrian" speed="2.78" length="5.27" width="2.00" shape="116.07,197.19 113.12,191.94"/>
    <lane id=":18.17_0_1" index="1" disallow="all" speed="1.39" length="5.27" width="0.63" shape="116.08,195.87 113.13,190.62"/>
    <lane id=":18.17_0_2" index="2" disallow="all" speed="1.39" length="5.27" width="0.50" shape="116.09,195.31 113.14,190.05"/>
    <lane id=":18.17_0_3" index="3" disallow="pedestrian tram rail_urban rail rail_electric rail_fast ship" speed="13.89" length="5.27" width="3.50" shape="116.15,188.08 113.15,188.05"/>
  </edge>
  <edge id=":18.17_4" function="internal">
    <lane id=":18.17_4_0" index="0" allow="pedestrian" speed="2.78" length="3.00" width="2.00" shape="113.22,180.67 116.22,180.70"/>
    <lane id=":18.17_4_1" index="1" disallow="all" speed="1.39" length="3.00" width="0.63" shape="113.21,181.99 116.21,182.01"/>
    <lane id=":18.17_4_2" index="2" disallow="all" speed="1.39" length="3.00" width="0.50" shape="113.21,182.55 116.21,182.58"/>
    <lane id=":18.17_4_3" index="3" disallow="pedestrian tram rail_urban rail rail_electric rail_fast ship" speed="13.89" length="3.00" width="3.50" shape="113.19,184.55 116.19,184.58"/>
  </edge>
  <edge id=":26.25_0" function="internal">
    <lane id=":26.25_0_0" index="0" disallow="all" speed="1.39" length="8.20" width="0.50" shape="238.18,128.23,0.03 235.75,128.54,0.03 234.13,129.16,0.03 232.52,129.77,0.03 230.09,130.04,0.03"/>
    <lane id=":26.25_0_1" index="1" disallow="pedestrian tram rail_urban rail rail_electric rail_fast ship" speed="13.89" length="8.20" width="3.50" shape="238.16,126.23,0.03 230.10,126.26,0.03"/>
  </edge>
  <edge id=":26.25_2" function="internal">
    <lane id=":26.25_2_0" index="0" allow="pedestrian" speed="2.78" length="7.96" width="2.00" shape="230.14,118.87,0.03 238.08,118.85,0.03"/>
    <lane id=":26.25_2_1" index="1" disallow="all" speed="1.39" length="7.96" width="0.63" shape="230.14,120.19,0.03 238.09,120.17,0.03"/>
    <lane id=":26.25_2_2" index="2" disallow="all" speed="1.39" length="7.96" width="0.50" shape="230.13,120.76,0.03 238.10,120.74,0.03"/>
    <lane id=":26.25_2_3" index="3" disallow="pedestrian tram rail_urban rail rail_electric rail_fast ship" speed="13.89" length="7.96" width="3.50" shape="230.12,122.76,0.03 238.12,122.74,0.03"/>
  </edge>
  <edge id=":26.6.13_0" function="internal">
    <lane id=":26.6.13_0_0" index="0" disallow="all" speed="1.39" length="3.25" width="0.50" shape="229.40,130.03,0.03 228.44,130.30,0.03 227.89,130.88,0.03 227.34,131.47,0.03 226.38,131.73,0.03"/>
    <lane id=":26.6.13_0_1" index="1" allow="emergency authority" speed="13.89" length="3.25" width="3.50" shape="229.41,128.89,0.03 228.50,129.02,0.03 227.90,129.31,0.03 227.31,129.60,0.03 226.40,129.73,0.03"/>
    <lane id=":26.6.13_0_2" index="2" disallow="pedestrian tram rail_urban rail rail_electric rail_fast ship" speed="13.89" length="3.25" width="3.50" shape="229.42,126.25,0.03 226.43,126.23,0.03"/>
  </edge>
  <edge id=":26.6.13_3" function="internal">
    <lane id=":26.6.13_3_0" index="0" allow="pedestrian" speed="2.78" length="2.97" width="2.00" shape="226.50,118.84,0.03 229.47,118.87,0.03"/>
    <lane id=":26.6.13_3_1" index="1" disallow="all" speed="1.39" length="2.97" width="0.63" shape="226.49,120.16,0.03 229.46,120.19,0.03"/>
    <lane id=":26.6.13_3_2" index="2" disallow="all" speed="1.39" length="2.97" width="0.50" shape="226.49,120.73,0.03 229.46,120.75,0.03"/>
    <lane id=":26.6.13_3_3" index="3" disallow="pedestrian tram rail_urban rail rail_electric rail_fast ship" speed="13.89" length="2.97" width="3.50" shape="226.47,122.73,0.03 229.45,122.75,0.03"/>
  </edge>
  <edge id=":260_0" function="internal">
    <lane id=":260_0_0" index="0" disallow="pedestrian tram rail_urban rail rail_electric rail_fast ship" speed="7.34" length="12.11" width="3.50" shape="197.12,71.88 196.62,68.58,0.01 195.18,66.28,0.02 192.79,64.99,0.03 189.46,64.70,0.03">
      <param key="origId" value="286_-1"/>
    </lane>
  </edge>
  <edge id=":260_1" function="internal">
    <lane id=":260_1_0" index="0" disallow="pedestrian tram rail_urban rail rail_electric rail_fast ship" speed="9.00" length="17.45" width="3.50" shape="197.12,71.88 197.72,66.98,0.01 199.61,63.40,0.02 202.79,61.13,0.03 207.25,60.18,0.03">
      <param key="origId" value="265_-1"/>
    </lane>
  </edge>
  <edge id=":260_2" function="internal">
    <lane id=":260_2_0" index="0" disallow="pedestrian tram rail_urban rail rail_electric rail_fast ship" speed="7.56" length="12.01" width="3.50" shape="207.45,63.67,0.03 204.44,64.33,0.03 202.30,65.91,0.02 201.03,68.42,0.01 200.62,71.85">
      <param key="origId" value="261_1"/>
    </lane>
  </edge>
  <edge id=":260_3" function="internal">
    <lane id=":260_3_0" index="0" disallow="pedestrian tram rail_urban rail rail_electric rail_fast ship" speed="13.89" length="18.02" width="3.50" shape="207.45,63.67,0.03 189.46,64.70,0.03">
      <param key="origId" value="281_1"/>
    </lane>
  </edge>
  <edge id=":260_4" function="internal">
    <lane id=":260_4_0" index="0" disallow="all" speed="1.39" length="18.02" width="0.50" shape="189.15,59.21,0.03 207.14,58.18,0.03">
      <param key="origId" value="280_-2"/>
    </lane>
    <lane id=":260_4_1" index="1" disallow="pedestrian tram rail_urban rail rail_electric rail_fast ship" speed="13.89" length="18.02" width="3.50" shape="189.26,61.21,0.03 207.25,60.18,0.03">
      <param key="origId" value="280_-1"/>
    </lane>
  </edge>
  <edge id=":260_6" function="internal">
    <lane id=":260_6_0" index="0" disallow="pedestrian tram rail_urban rail rail_electric rail_fast ship" speed="8.81" length="17.95" width="3.50" shape="189.26,61.21,0.03 194.20,61.63,0.03 197.74,63.55,0.02 199.88,66.95,0.01 200.62,71.85">
      <param key="origId" value="282_-1"/>
    </lane>
  </edge>
  <edge id=":288_0" function="internal">
    <lane id=":288_0_0" index="0" disallow="all" speed="1.39" length="19.84" width="0.50" shape="196.96,291.10 196.79,271.26">
      <param key="origId" value="309_-2"/>
    </lane>
  </edge>
  <edge id=":288_1" function="internal">
    <lane id=":288_1_0" index="0" disallow="pedestrian tram rail_urban rail rail_electric rail_fast ship" speed="7.71" length="5.24" width="3.50" shape="198.96,291.08 198.38,287.91,0.03 197.17,286.29,0.06">
      <param key="origId" value="301_-1"/>
    </lane>
  </edge>
  <edge id=":288_2" function="internal">
    <lane id=":288_2_0" index="0" disallow="pedestrian tram rail_urban rail rail_electric rail_fast ship" speed="13.89" length="19.84" width="3.50" shape="198.96,291.08 198.79,271.24">
      <param key="origId" value="309_-1"/>
    </lane>
  </edge>
  <edge id=":288_8" function="internal">
    <lane id=":288_8_0" index="0" disallow="pedestrian tram rail_urban rail rail_electric rail_fast ship" speed="7.71" length="7.79" width="3.50" shape="197.17,286.29,0.06 196.69,285.66,0.06 193.91,284.33,0.10 190.02,283.91,0.14">
      <param key="origId" value="301_-1"/>
    </lane>
  </edge>
  <edge id=":288_3" function="internal">
    <lane id=":288_3_0" index="0" disallow="all" speed="1.39" length="19.84" width="0.50" shape="204.29,271.20 204.46,291.04">
      <param key="origId" value="310_2"/>
    </lane>
    <lane id=":288_3_1" index="1" disallow="pedestrian tram rail_urban rail rail_electric rail_fast ship" speed="13.89" length="19.84" width="3.50" shape="202.29,271.21 202.46,291.05">
      <param key="origId" value="310_1"/>
    </lane>
  </edge>
  <edge id=":288_5" function="internal">
    <lane id=":288_5_0" index="0" disallow="pedestrian tram rail_urban rail rail_electric rail_fast ship" speed="9.46" length="7.48" width="3.50" shape="202.29,271.21 201.56,276.72,0.04 200.60,278.39,0.05">
      <param key="origId" value="289_1"/>
    </lane>
  </edge>
  <edge id=":288_9" function="internal">
    <lane id=":288_9_0" index="0" disallow="pedestrian tram rail_urban rail rail_electric rail_fast ship" speed="9.46" length="12.65" width="3.50" shape="200.60,278.39,0.05 199.28,280.68,0.07 195.43,283.07,0.10 190.02,283.91,0.14">
      <param key="origId" value="289_1"/>
    </lane>
  </edge>
  <edge id=":288_6" function="internal">
    <lane id=":288_6_0" index="0" disallow="pedestrian tram rail_urban rail rail_electric rail_fast ship" speed="8.11" length="14.49" width="3.50" shape="189.99,280.41,0.14 193.87,279.80,0.10 196.63,278.07,0.07 198.27,275.22,0.04 198.79,271.24">
      <param key="origId" value="295_1"/>
    </lane>
  </edge>
  <edge id=":288_7" function="internal">
    <lane id=":288_7_0" index="0" disallow="pedestrian tram rail_urban rail rail_electric rail_fast ship" speed="9.12" length="18.67" width="3.50" shape="189.99,280.41,0.14 195.41,281.03,0.10 199.30,283.01,0.07 201.64,286.35,0.04 202.46,291.05">
      <param key="origId" value="297_1"/>
    </lane>
  </edge>
  <edge id=":314_0" function="internal">
    <lane id=":314_0_0" index="0" allow="pedestrian" speed="2.78" length="18.33" width="2.00" shape="186.60,235.49,0.00 168.27,235.54,0.00">
      <param key="origId" value="328_-4"/>
    </lane>
    <lane id=":314_0_1" index="1" disallow="all" speed="1.39" length="18.33" width="0.63" shape="186.60,234.17,0.00 168.27,234.23,0.00">
      <param key="origId" value="328_-3"/>
    </lane>
    <lane id=":314_0_2" index="2" disallow="all" speed="1.39" length="18.33" width="0.50" shape="186.60,233.60,0.00 168.27,233.66,0.00">
      <param key="origId" value="328_-2"/>
    </lane>
    <lane id=":314_0_3" index="3" disallow="pedestrian tram rail_urban rail rail_electric rail_fast ship" speed="13.89" length="18.33" width="3.50" shape="186.59,231.60,0.00 168.26,231.66,0.00">
      <param key="origId" value="328_-1"/>
    </lane>
  </edge>
  <edge id=":314_4" function="internal">
    <lane id=":314_4_0" index="0" disallow="pedestrian tram rail_urban rail rail_electric rail_fast ship" speed="7.43" length="11.65" width="3.50" shape="179.31,220.81 179.87,224.01,0.00 181.27,226.29,0.00 183.51,227.65,0.00 186.58,228.10,0.00">
      <param key="origId" value="331_-1"/>
    </lane>
  </edge>
  <edge id=":314_5" function="internal">
    <lane id=":314_5_0" index="0" disallow="all" speed="1.39" length="18.33" width="0.50" shape="168.25,226.16,0.00 186.57,226.10,0.00">
      <param key="origId" value="329_2"/>
    </lane>
    <lane id=":314_5_1" index="1" disallow="pedestrian tram rail_urban rail rail_electric rail_fast ship" speed="13.89" length="18.33" width="3.50" shape="168.25,228.16,0.00 186.58,228.10,0.00">
      <param key="origId" value="329_1"/>
    </lane>
  </edge>
  <edge id=":335_0" function="internal">
    <lane id=":335_0_0" index="0" allow="pedestrian" speed="2.78" length="11.88" width="2.00" shape="272.03,70.74,0.03 269.42,68.78,0.03 267.47,67.64,0.03 265.32,66.92,0.03 262.13,66.25,0.03">
      <param key="origId" value="347_4"/>
    </lane>
    <lane id=":335_0_1" index="1" disallow="all" speed="1.39" length="11.88" width="0.63" shape="272.83,69.69,0.03 270.08,67.63,0.03 268.02,66.42,0.03 265.75,65.67,0.03 262.38,64.96,0.03">
      <param key="origId" value="347_3"/>
    </lane>
    <lane id=":335_0_2" index="2" disallow="all" speed="1.39" length="11.88" width="0.50" shape="273.18,69.24,0.03 270.36,67.13,0.03 268.25,65.90,0.03 265.94,65.13,0.03 262.49,64.40,0.03">
      <param key="origId" value="347_2"/>
    </lane>
    <lane id=":335_0_3" index="3" disallow="pedestrian tram rail_urban rail rail_electric rail_fast ship" speed="13.89" length="11.88" width="3.50" shape="274.40,67.66,0.03 271.36,65.38,0.03 269.09,64.05,0.03 266.59,63.22,0.03 262.87,62.44,0.03">
      <param key="origId" value="347_1"/>
      <param key="signalID" value="998"/>
    </lane>
  </edge>
  <edge id=":335_4" function="internal">
    <lane id=":335_4_0" index="0" disallow="pedestrian tram rail_urban rail rail_electric rail_fast ship" speed="9.57" length="5.23" width="3.20" shape="274.40,67.66,0.03 272.19,65.22,0.02 271.51,63.41,0.02">
      <param key="origId" value="354_1"/>
      <param key="signalID" value="998"/>
    </lane>
  </edge>
  <edge id=":335_10" function="internal">