<?xml version='1.0' encoding='UTF-8'?>
<!--generated on 2022-08-04 17:16:45 by create_sumo_vtypes.py-->
<routes>
  <vType id="vehicle.audi.a2" length="3.705369472503662" width="1.7886788845062256" height="1.5470870733261108" carFollowModel="IDM" vClass="passenger"/>
  <vType id="vehicle.audi.tt" length="4.181210041046143" width="1.9941171407699585" height="1.385296106338501" carFollowModel="IDM" vClass="passenger"/>
  <vType id="vehicle.carlamotors.carlacola" length="5.203838348388672" width="2.614572286605835" height="2.467444658279419" carFollowModel="IDM" vClass="truck" guiShape="truck"/>
  <vType id="vehicle.bmw.isetta" length="2.2072951793670654" width="1.4809197187423706" height="1.3787471055984497" carFollowModel="IDM" vClass="evehicle"/>
  <vType id="vehicle.nissan.micra" length="3.633375883102417" width="1.845113754272461" height="1.50146484375" carFollowModel="IDM" vClass="passenger"/>
  <vType id="vehicle.citroen.c3" length="3.987684965133667" width="1.8508483171463013" height="1.6171096563339233" carFollowModel="IDM" vClass="passenger"/>
  <vType id="vehicle.gazelle.omafiets" length="1.8354405164718628" width="0.3289288878440857" height="1.1256572008132935" carFollowModel="IDM" vClass="bicycle"/>
  <vType id="vehicle.mercedes-benz.coupe" length="5.0267767906188965" width="2.1515462398529053" height="1.6355280876159668" carFollowModel="IDM" vClass="passenger"/>
  <vType id="vehicle.mini.cooperst" length="3.805800199508667" width="1.97027587890625" height="1.4750303030014038" carFollowModel="IDM" vClass="passenger"/>
  <vType id="vehicle.nissan.patrol" length="4.6045098304748535" width="1.9315931797027588" height="1.8548461198806763" carFollowModel="IDM" vClass="passenger"/>
  <vType id="vehicle.mustang.mustang" length="4.717525005340576" width="1.894826889038086" height="1.300939917564392" carFollowModel="IDM" vClass="passenger"/>
  <vType id="vehicle.lincoln.mkz2017" length="4.901683330535889" width="2.128324270248413" height="1.5107464790344238" carFollowModel="IDM" vClass="passenger"/>
  <vType id="vehicle.tesla.cybertruck" length="6.273552894592285" width="2.3895740509033203" height="2.098191261291504" carFollowModel="IDM" vClass="evehicle"/>
  <vType id="vehicle.toyota.prius" length="4.513522624969482" width="2.006814479827881" height="1.5248334407806396" carFollowModel="IDM" vClass="evehicle"/>
  <vType id="vehicle.volkswagen.t2" length="4.4804368019104" width="2.069315195083618" height="2.0377910137176514" carFollowModel="IDM" vClass="passenger" guiShape="passenger/van"/>
  <vType id="vehicle.bmw.grandtourer" length="4.611005783081055" width="2.241713285446167" height="1.6672759056091309" carFollowModel="IDM" vClass="passenger"/>
  <vType id="vehicle.tesla.model3" length="4.791779518127441" width="2.163450002670288" height="1.488319993019104" carFollowModel="IDM" vClass="evehicle"/>
  <vType id="vehicle.diamondback.century" length="1.6428436040878296" width="0.3725162446498871" height="1.0239027738571167" carFollowModel="IDM" vClass="bicycle"/>
  <vType id="vehicle.dodge_charger.police" length="4.974244117736816" width="2.0384013652801514" height="1.5542958974838257" carFollowModel="IDM" vClass="authority" guiShape="police"/>
  <vType id="vehicle.bh.crossbike" length="1.4872888326644897" width="0.8592574596405029" height="1.0795789957046509" carFollowModel="IDM" vClass="bicycle"/>
  <vType id="vehicle.kawasaki.ninja" length="2.0333523750305176" width="0.8025798797607422" height="1.1454535722732544" carFollowModel="IDM" vClass="motorcycle"/>
  <vType id="vehicle.jeep.wrangler_rubicon" length="3.866220712661743" width="1.9051965475082397" height="1.8779358863830566" carFollowModel="IDM" vClass="passenger"/>
  <vType id="vehicle.yamaha.yzf" length="2.2094459533691406" width="0.8670341968536377" height="1.2511454820632935" carFollowModel="IDM" vClass="motorcycle"/>
  <vType id="vehicle.chevrolet.impala" length="5.357479572296143" width="2.033203125" height="1.4106584787368774" carFollowModel="IDM" vClass="passenger"/>
  <vType id="vehicle.harley-davidson.low_rider" length="2.3557403087615967" width="0.7636788487434387" height="1.2765706777572632" carFollowModel="IDM" vClass="motorcycle"/>
  <vType id="vehicle.audi.etron" length="4.855708599090576" width="2.0327565670013428" height="1.6493593454360962" carFollowModel="IDM" vClass="evehicle"/>
  <vType id="vehicle.seat.leon" length="4.1928300857543945" width="1.8161858320236206" height="1.4738311767578125" carFollowModel="IDM" vClass="passenger"/>
</routes>
